_cell_length_a 27.1013
_cell_length_b 9.27321
_cell_length_c 16.979215
_cell_angle_alpha 90.0
_cell_angle_beta 99.1565
_cell_angle_gamma 90.0
_symmetry_space_group_name_H-M         'P 1'
_symmetry_Int_Tables_number            1
loop_
_symmetry_equiv_pos_as_xyz
   'x, y, z'
                         
loop_
_atom_site_label
_atom_site_type_symbol
_atom_site_fract_x 
_atom_site_fract_y
_atom_site_fract_z
_atom_site_charge
Zn Zn -0.1730961 0.797253 -0.34232817 0.0
Zn Zn -0.17236711 0.393693 -0.54948817 0.0
O O -0.232796 0.6575118 -0.306891 0.0
O O -0.177837 0.63352 -0.4249112 0.0
O O -0.207947 0.41482 -0.4583412 0.0
O O -0.302018 0.2836219 -0.4008412 0.0
O O -0.365228 0.41192 -0.4662013 0.0
O O -0.318207 0.43312 -0.2525511 0.0
O O -0.363679 0.62342 -0.2285813 0.0
O O -0.317437 0.9448119 -0.3742912 0.0
O O -0.240687 0.89402 -0.3987012 0.0
N N -0.112319 0.69582 -0.2653814 0.0
N N 0.100198 0.43872 -0.0041314 0.0
C C -0.242039 0.53202 -0.3581014 0.0
H H -0.2375 0.4445 -0.3254 0.0
C C -0.296559 0.54213 -0.3984014 0.0
H H -0.2969 0.5992 -0.4471 0.0
C C -0.320829 0.63603 -0.3397414 0.0
H H -0.3495 0.6888 -0.3683 0.0
C C -0.277909 0.74012 -0.3102514 0.0
H H -0.281 0.7737 -0.2565 0.0
C C -0.206069 0.52913 -0.4182315 0.0
C C -0.323431 0.40183 -0.4230215 0.0
C C -0.335529 0.55643 -0.2676515 0.0
C C -0.277699 0.87113 -0.3661815 0.0
C C -0.1069511 0.55683 -0.2488818 0.0
H H -0.1314 0.4938 -0.2731 0.0
C C -0.0669112 0.50003 -0.1975419 0.0
H H -0.065 0.4012 -0.1882 0.0
C C -0.029581 0.59063 -0.1598317 0.0
C C -0.0357312 0.73673 -0.17642 0.0
H H -0.0125 0.8029 -0.1518 0.0
C C -0.0765912 0.78363 -0.22962 0.0
H H -0.0793 0.8816 -0.2412 0.0
C C 0.0735111 0.35043 -0.0572219 0.0
H H 0.0839 0.2552 -0.06 0.0
C C 0.0312712 0.39463 -0.10802 0.0
H H 0.0139 0.33 -0.1442 0.0
C C 0.014851 0.53663 -0.1046516 0.0
C C 0.0418411 0.62603 -0.0489318 0.0
H H 0.0318 0.721 -0.044 0.0
C C 0.0840411 0.57413 -0.0002918 0.0
H H 0.1019 0.6363 0.0367 0.0
Zn Zn 0.1730961 0.797253 0.84232817 0.0
Zn Zn 0.17236711 0.393693 1.04948817 0.0
O O 0.232796 0.6575118 0.806891 0.0
O O 0.177837 0.63352 0.9249111999999999 0.0
O O 0.207947 0.41482 0.9583412 0.0
O O 0.302018 0.2836219 0.9008412 0.0
O O 0.365228 0.41192 0.9662013 0.0
O O 0.318207 0.43312 0.7525511 0.0
O O 0.363679 0.62342 0.7285813 0.0
O O 0.317437 0.9448119 0.8742912 0.0
O O 0.240687 0.89402 0.8987012 0.0
N N 0.112319 0.69582 0.7653814 0.0
N N -0.100198 0.43872 0.5041314 0.0
C C 0.242039 0.53202 0.8581014 0.0
H H 0.2375 0.4445 0.8254 0.0
C C 0.296559 0.54213 0.8984014 0.0
H H 0.2969 0.5992 0.9471 0.0
C C 0.320829 0.63603 0.8397414000000001 0.0
H H 0.3495 0.6888 0.8683000000000001 0.0
C C 0.277909 0.74012 0.8102514000000001 0.0
H H 0.281 0.7737 0.7565 0.0
C C 0.206069 0.52913 0.9182315 0.0
C C 0.323431 0.40183 0.9230214999999999 0.0
C C 0.335529 0.55643 0.7676514999999999 0.0
C C 0.277699 0.87113 0.8661814999999999 0.0
C C 0.1069511 0.55683 0.7488817999999999 0.0
H H 0.1314 0.4938 0.7731 0.0
C C 0.0669112 0.50003 0.6975419 0.0
H H 0.065 0.4012 0.6882 0.0
C C 0.029581 0.59063 0.6598317 0.0
C C 0.0357312 0.73673 0.67642 0.0
H H 0.0125 0.8029 0.6517999999999999 0.0
C C 0.0765912 0.78363 0.7296199999999999 0.0
H H 0.0793 0.8816 0.7412 0.0
C C -0.0735111 0.35043 0.5572219 0.0
H H -0.0839 0.2552 0.56 0.0
C C -0.0312712 0.39463 0.60802 0.0
H H -0.0139 0.33 0.6442 0.0
C C -0.014851 0.53663 0.6046516 0.0
C C -0.0418411 0.62603 0.5489318 0.0
H H -0.0318 0.721 0.544 0.0
C C -0.0840411 0.57413 0.5002918 0.0
H H -0.1019 0.6363 0.4633 0.0
Zn Zn 0.3269039 1.297253 -0.34232817 0.0
Zn Zn 0.32763289 0.8936930000000001 -0.54948817 0.0
O O 0.267204 1.1575118 -0.306891 0.0
O O 0.322163 1.1335199999999999 -0.4249112 0.0
O O 0.292053 0.91482 -0.4583412 0.0
O O 0.197982 0.7836219 -0.4008412 0.0
O O 0.134772 0.9119200000000001 -0.4662013 0.0
O O 0.18179299999999998 0.93312 -0.2525511 0.0
O O 0.13632100000000003 1.1234199999999999 -0.2285813 0.0
O O 0.18256299999999998 1.4448119 -0.3742912 0.0
O O 0.259313 1.39402 -0.3987012 0.0
N N 0.387681 1.1958199999999999 -0.2653814 0.0
N N 0.600198 0.93872 -0.0041314 0.0
C C 0.257961 1.0320200000000002 -0.3581014 0.0
H H 0.2625 0.9445 -0.3254 0.0
C C 0.20344099999999998 1.04213 -0.3984014 0.0
H H 0.2031 1.0992 -0.4471 0.0
C C 0.17917100000000002 1.1360299999999999 -0.3397414 0.0
H H 0.15050000000000002 1.1888 -0.3683 0.0
C C 0.22209099999999998 1.2401200000000001 -0.3102514 0.0
H H 0.21899999999999997 1.2737 -0.2565 0.0
C C 0.293931 1.0291299999999999 -0.4182315 0.0
C C 0.17656899999999998 0.90183 -0.4230215 0.0
C C 0.16447099999999998 1.05643 -0.2676515 0.0
C C 0.22230100000000003 1.37113 -0.3661815 0.0
C C 0.39304890000000003 1.0568300000000002 -0.2488818 0.0
H H 0.36860000000000004 0.9938 -0.2731 0.0
C C 0.4330888 1.00003 -0.1975419 0.0
H H 0.435 0.9012 -0.1882 0.0
C C 0.470419 1.09063 -0.1598317 0.0
C C 0.4642688 1.23673 -0.17642 0.0
H H 0.4875 1.3029 -0.1518 0.0
C C 0.42340880000000003 1.28363 -0.22962 0.0
H H 0.4207 1.3816000000000002 -0.2412 0.0
C C 0.5735110999999999 0.85043 -0.0572219 0.0
H H 0.5839 0.7552 -0.06 0.0
C C 0.5312711999999999 0.89463 -0.10802 0.0
H H 0.5139 0.8300000000000001 -0.1442 0.0
C C 0.514851 1.0366300000000002 -0.1046516 0.0
C C 0.5418411 1.12603 -0.0489318 0.0
H H 0.5318 1.221 -0.044 0.0
C C 0.5840411 1.07413 -0.0002918 0.0
H H 0.6019 1.1362999999999999 0.0367 0.0
Zn Zn 0.6730961 1.297253 0.84232817 0.0
Zn Zn 0.6723671099999999 0.8936930000000001 1.04948817 0.0
O O 0.732796 1.1575118 0.806891 0.0
O O 0.677837 1.1335199999999999 0.9249111999999999 0.0
O O 0.707947 0.91482 0.9583412 0.0
O O 0.802018 0.7836219 0.9008412 0.0
O O 0.865228 0.9119200000000001 0.9662013 0.0
O O 0.818207 0.93312 0.7525511 0.0
O O 0.863679 1.1234199999999999 0.7285813 0.0
O O 0.817437 1.4448119 0.8742912 0.0
O O 0.740687 1.39402 0.8987012 0.0
N N 0.6123190000000001 1.1958199999999999 0.7653814 0.0
N N 0.399802 0.93872 0.5041314 0.0
C C 0.742039 1.0320200000000002 0.8581014 0.0
H H 0.7375 0.9445 0.8254 0.0
C C 0.796559 1.04213 0.8984014 0.0
H H 0.7968999999999999 1.0992 0.9471 0.0
C C 0.820829 1.1360299999999999 0.8397414000000001 0.0
H H 0.8494999999999999 1.1888 0.8683000000000001 0.0
C C 0.777909 1.2401200000000001 0.8102514000000001 0.0
H H 0.781 1.2737 0.7565 0.0
C C 0.7060690000000001 1.0291299999999999 0.9182315 0.0
C C 0.823431 0.90183 0.9230214999999999 0.0
C C 0.835529 1.05643 0.7676514999999999 0.0
C C 0.7776989999999999 1.37113 0.8661814999999999 0.0
C C 0.6069511 1.0568300000000002 0.7488817999999999 0.0
H H 0.6314 0.9938 0.7731 0.0
C C 0.5669112000000001 1.00003 0.6975419 0.0
H H 0.565 0.9012 0.6882 0.0
C C 0.529581 1.09063 0.6598317 0.0
C C 0.5357312 1.23673 0.67642 0.0
H H 0.5125 1.3029 0.6517999999999999 0.0
C C 0.5765912 1.28363 0.7296199999999999 0.0
H H 0.5793 1.3816000000000002 0.7412 0.0
C C 0.4264889 0.85043 0.5572219 0.0
H H 0.4161 0.7552 0.56 0.0
C C 0.4687288 0.89463 0.60802 0.0
H H 0.4861 0.8300000000000001 0.6442 0.0
C C 0.485149 1.0366300000000002 0.6046516 0.0
C C 0.4581589 1.12603 0.5489318 0.0
H H 0.4682 1.221 0.544 0.0
C C 0.4159589 1.07413 0.5002918 0.0
H H 0.3981 1.1362999999999999 0.4633 0.0
Zn Zn 0.1730961 -0.797253 0.34232817 0.0
Zn Zn 0.17236711 -0.393693 0.54948817 0.0
O O 0.232796 -0.6575118 0.306891 0.0
O O 0.177837 -0.63352 0.4249112 0.0
O O 0.207947 -0.41482 0.4583412 0.0
O O 0.302018 -0.2836219 0.4008412 0.0
O O 0.365228 -0.41192 0.4662013 0.0
O O 0.318207 -0.43312 0.2525511 0.0
O O 0.363679 -0.62342 0.2285813 0.0
O O 0.317437 -0.9448119 0.3742912 0.0
O O 0.240687 -0.89402 0.3987012 0.0
N N 0.112319 -0.69582 0.2653814 0.0
N N -0.100198 -0.43872 0.0041314 0.0
C C 0.242039 -0.53202 0.3581014 0.0
H H 0.2375 -0.4445 0.3254 0.0
C C 0.296559 -0.54213 0.3984014 0.0
H H 0.2969 -0.5992 0.4471 0.0
C C 0.320829 -0.63603 0.3397414 0.0
H H 0.3495 -0.6888 0.3683 0.0
C C 0.277909 -0.74012 0.3102514 0.0
H H 0.281 -0.7737 0.2565 0.0
C C 0.206069 -0.52913 0.4182315 0.0
C C 0.323431 -0.40183 0.4230215 0.0
C C 0.335529 -0.55643 0.2676515 0.0
C C 0.277699 -0.87113 0.3661815 0.0
C C 0.1069511 -0.55683 0.2488818 0.0
H H 0.1314 -0.4938 0.2731 0.0
C C 0.0669112 -0.50003 0.1975419 0.0
H H 0.065 -0.4012 0.1882 0.0
C C 0.029581 -0.59063 0.1598317 0.0
C C 0.0357312 -0.73673 0.17642 0.0
H H 0.0125 -0.8029 0.1518 0.0
C C 0.0765912 -0.78363 0.22962 0.0
H H 0.0793 -0.8816 0.2412 0.0
C C -0.0735111 -0.35043 0.0572219 0.0
H H -0.0839 -0.2552 0.06 0.0
C C -0.0312712 -0.39463 0.10802 0.0
H H -0.0139 -0.33 0.1442 0.0
C C -0.014851 -0.53663 0.1046516 0.0
C C -0.0418411 -0.62603 0.0489318 0.0
H H -0.0318 -0.721 0.044 0.0
C C -0.0840411 -0.57413 0.0002918 0.0
H H -0.1019 -0.6363 -0.0367 0.0
Zn Zn -0.1730961 -0.797253 -0.84232817 0.0
Zn Zn -0.17236711 -0.393693 -1.04948817 0.0
O O -0.232796 -0.6575118 -0.806891 0.0
O O -0.177837 -0.63352 -0.9249111999999999 0.0
O O -0.207947 -0.41482 -0.9583412 0.0
O O -0.302018 -0.2836219 -0.9008412 0.0
O O -0.365228 -0.41192 -0.9662013 0.0
O O -0.318207 -0.43312 -0.7525511 0.0
O O -0.363679 -0.62342 -0.7285813 0.0
O O -0.317437 -0.9448119 -0.8742912 0.0
O O -0.240687 -0.89402 -0.8987012 0.0
N N -0.112319 -0.69582 -0.7653814 0.0
N N 0.100198 -0.43872 -0.5041314 0.0
C C -0.242039 -0.53202 -0.8581014 0.0
H H -0.2375 -0.4445 -0.8254 0.0
C C -0.296559 -0.54213 -0.8984014 0.0
H H -0.2969 -0.5992 -0.9471 0.0
C C -0.320829 -0.63603 -0.8397414000000001 0.0
H H -0.3495 -0.6888 -0.8683000000000001 0.0
C C -0.277909 -0.74012 -0.8102514000000001 0.0
H H -0.281 -0.7737 -0.7565 0.0
C C -0.206069 -0.52913 -0.9182315 0.0
C C -0.323431 -0.40183 -0.9230214999999999 0.0
C C -0.335529 -0.55643 -0.7676514999999999 0.0
C C -0.277699 -0.87113 -0.8661814999999999 0.0
C C -0.1069511 -0.55683 -0.7488817999999999 0.0
H H -0.1314 -0.4938 -0.7731 0.0
C C -0.0669112 -0.50003 -0.6975419 0.0
H H -0.065 -0.4012 -0.6882 0.0
C C -0.029581 -0.59063 -0.6598317 0.0
C C -0.0357312 -0.73673 -0.67642 0.0
H H -0.0125 -0.8029 -0.6517999999999999 0.0
C C -0.0765912 -0.78363 -0.7296199999999999 0.0
H H -0.0793 -0.8816 -0.7412 0.0
C C 0.0735111 -0.35043 -0.5572219 0.0
H H 0.0839 -0.2552 -0.56 0.0
C C 0.0312712 -0.39463 -0.60802 0.0
H H 0.0139 -0.33 -0.6442 0.0
C C 0.014851 -0.53663 -0.6046516 0.0
C C 0.0418411 -0.62603 -0.5489318 0.0
H H 0.0318 -0.721 -0.544 0.0
C C 0.0840411 -0.57413 -0.5002918 0.0
H H 0.1019 -0.6363 -0.4633 0.0
Zn Zn 0.6730961 -0.297253 0.34232817 0.0
Zn Zn 0.6723671099999999 0.10630699999999998 0.54948817 0.0
O O 0.732796 -0.15751179999999998 0.306891 0.0
O O 0.677837 -0.13351999999999997 0.4249112 0.0
O O 0.707947 0.08517999999999998 0.4583412 0.0
O O 0.802018 0.21637810000000002 0.4008412 0.0
O O 0.865228 0.08807999999999999 0.4662013 0.0
O O 0.818207 0.06688 0.2525511 0.0
O O 0.863679 -0.12341999999999997 0.2285813 0.0
O O 0.817437 -0.44481190000000004 0.3742912 0.0
O O 0.740687 -0.39402000000000004 0.3987012 0.0
N N 0.6123190000000001 -0.19582 0.2653814 0.0
N N 0.399802 0.06128 0.0041314 0.0
C C 0.742039 -0.03202000000000005 0.3581014 0.0
H H 0.7375 0.055499999999999994 0.3254 0.0
C C 0.796559 -0.04213 0.3984014 0.0
H H 0.7968999999999999 -0.09919999999999995 0.4471 0.0
C C 0.820829 -0.13602999999999998 0.3397414 0.0
H H 0.8494999999999999 -0.18879999999999997 0.3683 0.0
C C 0.777909 -0.24012 0.3102514 0.0
H H 0.781 -0.27370000000000005 0.2565 0.0
C C 0.7060690000000001 -0.02912999999999999 0.4182315 0.0
C C 0.823431 0.09816999999999998 0.4230215 0.0
C C 0.835529 -0.05642999999999998 0.2676515 0.0
C C 0.7776989999999999 -0.37112999999999996 0.3661815 0.0
C C 0.6069511 -0.05683000000000005 0.2488818 0.0
H H 0.6314 0.006199999999999983 0.2731 0.0
C C 0.5669112000000001 -2.999999999997449e-05 0.1975419 0.0
H H 0.565 0.0988 0.1882 0.0
C C 0.529581 -0.09062999999999999 0.1598317 0.0
C C 0.5357312 -0.23673 0.17642 0.0
H H 0.5125 -0.30289999999999995 0.1518 0.0
C C 0.5765912 -0.28363000000000005 0.22962 0.0
H H 0.5793 -0.38160000000000005 0.2412 0.0
C C 0.4264889 0.14956999999999998 0.0572219 0.0
H H 0.4161 0.24480000000000002 0.06 0.0
C C 0.4687288 0.10537000000000002 0.10802 0.0
H H 0.4861 0.16999999999999998 0.1442 0.0
C C 0.485149 -0.03663000000000005 0.1046516 0.0
C C 0.4581589 -0.12602999999999998 0.0489318 0.0
H H 0.4682 -0.22099999999999997 0.044 0.0
C C 0.4159589 -0.07413000000000003 0.0002918 0.0
H H 0.3981 -0.13629999999999998 -0.0367 0.0
Zn Zn 0.3269039 -0.297253 -0.84232817 0.0
Zn Zn 0.32763289 0.10630699999999998 -1.04948817 0.0
O O 0.267204 -0.15751179999999998 -0.806891 0.0
O O 0.322163 -0.13351999999999997 -0.9249111999999999 0.0
O O 0.292053 0.08517999999999998 -0.9583412 0.0
O O 0.197982 0.21637810000000002 -0.9008412 0.0
O O 0.134772 0.08807999999999999 -0.9662013 0.0
O O 0.18179299999999998 0.06688 -0.7525511 0.0
O O 0.13632100000000003 -0.12341999999999997 -0.7285813 0.0
O O 0.18256299999999998 -0.44481190000000004 -0.8742912 0.0
O O 0.259313 -0.39402000000000004 -0.8987012 0.0
N N 0.387681 -0.19582 -0.7653814 0.0
N N 0.600198 0.06128 -0.5041314 0.0
C C 0.257961 -0.03202000000000005 -0.8581014 0.0
H H 0.2625 0.055499999999999994 -0.8254 0.0
C C 0.20344099999999998 -0.04213 -0.8984014 0.0
H H 0.2031 -0.09919999999999995 -0.9471 0.0
C C 0.17917100000000002 -0.13602999999999998 -0.8397414000000001 0.0
H H 0.15050000000000002 -0.18879999999999997 -0.8683000000000001 0.0
C C 0.22209099999999998 -0.24012 -0.8102514000000001 0.0
H H 0.21899999999999997 -0.27370000000000005 -0.7565 0.0
C C 0.293931 -0.02912999999999999 -0.9182315 0.0
C C 0.17656899999999998 0.09816999999999998 -0.9230214999999999 0.0
C C 0.16447099999999998 -0.05642999999999998 -0.7676514999999999 0.0
C C 0.22230100000000003 -0.37112999999999996 -0.8661814999999999 0.0
C C 0.39304890000000003 -0.05683000000000005 -0.7488817999999999 0.0
H H 0.36860000000000004 0.006199999999999983 -0.7731 0.0
C C 0.4330888 -2.999999999997449e-05 -0.6975419 0.0
H H 0.435 0.0988 -0.6882 0.0
C C 0.470419 -0.09062999999999999 -0.6598317 0.0
C C 0.4642688 -0.23673 -0.67642 0.0
H H 0.4875 -0.30289999999999995 -0.6517999999999999 0.0
C C 0.42340880000000003 -0.28363000000000005 -0.7296199999999999 0.0
H H 0.4207 -0.38160000000000005 -0.7412 0.0
C C 0.5735110999999999 0.14956999999999998 -0.5572219 0.0
H H 0.5839 0.24480000000000002 -0.56 0.0
C C 0.5312711999999999 0.10537000000000002 -0.60802 0.0
H H 0.5139 0.16999999999999998 -0.6442 0.0
C C 0.514851 -0.03663000000000005 -0.6046516 0.0
C C 0.5418411 -0.12602999999999998 -0.5489318 0.0
H H 0.5318 -0.22099999999999997 -0.544 0.0
C C 0.5840411 -0.07413000000000003 -0.5002918 0.0
H H 0.6019 -0.13629999999999998 -0.4633 0.0
_cell_length_a 27.1013
_cell_length_b 9.27321
_cell_length_c 16.979215
_cell_angle_alpha 90.0
_cell_angle_beta 99.1565
_cell_angle_gamma 90.0
_symmetry_space_group_name_H-M         'P 1'
_symmetry_Int_Tables_number            1
loop_
_symmetry_equiv_pos_as_xyz
   'x, y, z'
                         
loop_
_atom_site_label
_atom_site_type_symbol
_atom_site_fract_x 
_atom_site_fract_y
_atom_site_fract_z
_atom_site_charge
Zn Zn -0.1730961 0.797253 -0.34232817 0.0
Zn Zn -0.17236711 0.393693 -0.54948817 0.0
O O -0.232796 0.6575118 -0.306891 0.0
O O -0.177837 0.63352 -0.4249112 0.0
O O -0.207947 0.41482 -0.4583412 0.0
O O -0.302018 0.2836219 -0.4008412 0.0
O O -0.365228 0.41192 -0.4662013 0.0
O O -0.318207 0.43312 -0.2525511 0.0
O O -0.363679 0.62342 -0.2285813 0.0
O O -0.317437 0.9448119 -0.3742912 0.0
O O -0.240687 0.89402 -0.3987012 0.0
N N -0.112319 0.69582 -0.2653814 0.0
N N 0.100198 0.43872 -0.0041314 0.0
C C -0.242039 0.53202 -0.3581014 0.0
H H -0.2375 0.4445 -0.3254 0.0
C C -0.296559 0.54213 -0.3984014 0.0
H H -0.2969 0.5992 -0.4471 0.0
C C -0.320829 0.63603 -0.3397414 0.0
H H -0.3495 0.6888 -0.3683 0.0
C C -0.277909 0.74012 -0.3102514 0.0
H H -0.281 0.7737 -0.2565 0.0
C C -0.206069 0.52913 -0.4182315 0.0
C C -0.323431 0.40183 -0.4230215 0.0
C C -0.335529 0.55643 -0.2676515 0.0
C C -0.277699 0.87113 -0.3661815 0.0
C C -0.1069511 0.55683 -0.2488818 0.0
H H -0.1314 0.4938 -0.2731 0.0
C C -0.0669112 0.50003 -0.1975419 0.0
H H -0.065 0.4012 -0.1882 0.0
C C -0.029581 0.59063 -0.1598317 0.0
C C -0.0357312 0.73673 -0.17642 0.0
H H -0.0125 0.8029 -0.1518 0.0
C C -0.0765912 0.78363 -0.22962 0.0
H H -0.0793 0.8816 -0.2412 0.0
C C 0.0735111 0.35043 -0.0572219 0.0
H H 0.0839 0.2552 -0.06 0.0
C C 0.0312712 0.39463 -0.10802 0.0
H H 0.0139 0.33 -0.1442 0.0
C C 0.014851 0.53663 -0.1046516 0.0
C C 0.0418411 0.62603 -0.0489318 0.0
H H 0.0318 0.721 -0.044 0.0
C C 0.0840411 0.57413 -0.0002918 0.0
H H 0.1019 0.6363 0.0367 0.0
Zn Zn 0.1730961 0.797253 0.84232817 0.0
Zn Zn 0.17236711 0.393693 1.04948817 0.0
O O 0.232796 0.6575118 0.806891 0.0
O O 0.177837 0.63352 0.9249111999999999 0.0
O O 0.207947 0.41482 0.9583412 0.0
O O 0.302018 0.2836219 0.9008412 0.0
O O 0.365228 0.41192 0.9662013 0.0
O O 0.318207 0.43312 0.7525511 0.0
O O 0.363679 0.62342 0.7285813 0.0
O O 0.317437 0.9448119 0.8742912 0.0
O O 0.240687 0.89402 0.8987012 0.0
N N 0.112319 0.69582 0.7653814 0.0
N N -0.100198 0.43872 0.5041314 0.0
C C 0.242039 0.53202 0.8581014 0.0
H H 0.2375 0.4445 0.8254 0.0
C C 0.296559 0.54213 0.8984014 0.0
H H 0.2969 0.5992 0.9471 0.0
C C 0.320829 0.63603 0.8397414000000001 0.0
H H 0.3495 0.6888 0.8683000000000001 0.0
C C 0.277909 0.74012 0.8102514000000001 0.0
H H 0.281 0.7737 0.7565 0.0
C C 0.206069 0.52913 0.9182315 0.0
C C 0.323431 0.40183 0.9230214999999999 0.0
C C 0.335529 0.55643 0.7676514999999999 0.0
C C 0.277699 0.87113 0.8661814999999999 0.0
C C 0.1069511 0.55683 0.7488817999999999 0.0
H H 0.1314 0.4938 0.7731 0.0
C C 0.0669112 0.50003 0.6975419 0.0
H H 0.065 0.4012 0.6882 0.0
C C 0.029581 0.59063 0.6598317 0.0
C C 0.0357312 0.73673 0.67642 0.0
H H 0.0125 0.8029 0.6517999999999999 0.0
C C 0.0765912 0.78363 0.7296199999999999 0.0
H H 0.0793 0.8816 0.7412 0.0
C C -0.0735111 0.35043 0.5572219 0.0
H H -0.0839 0.2552 0.56 0.0
C C -0.0312712 0.39463 0.60802 0.0
H H -0.0139 0.33 0.6442 0.0
C C -0.014851 0.53663 0.6046516 0.0
C C -0.0418411 0.62603 0.5489318 0.0
H H -0.0318 0.721 0.544 0.0
C C -0.0840411 0.57413 0.5002918 0.0
H H -0.1019 0.6363 0.4633 0.0
Zn Zn 0.3269039 1.297253 -0.34232817 0.0
Zn Zn 0.32763289 0.8936930000000001 -0.54948817 0.0
O O 0.267204 1.1575118 -0.306891 0.0
O O 0.322163 1.1335199999999999 -0.4249112 0.0
O O 0.292053 0.91482 -0.4583412 0.0
O O 0.197982 0.7836219 -0.4008412 0.0
O O 0.134772 0.9119200000000001 -0.4662013 0.0
O O 0.18179299999999998 0.93312 -0.2525511 0.0
O O 0.13632100000000003 1.1234199999999999 -0.2285813 0.0
O O 0.18256299999999998 1.4448119 -0.3742912 0.0
O O 0.259313 1.39402 -0.3987012 0.0
N N 0.387681 1.1958199999999999 -0.2653814 0.0
N N 0.600198 0.93872 -0.0041314 0.0
C C 0.257961 1.0320200000000002 -0.3581014 0.0
H H 0.2625 0.9445 -0.3254 0.0
C C 0.20344099999999998 1.04213 -0.3984014 0.0
H H 0.2031 1.0992 -0.4471 0.0
C C 0.17917100000000002 1.1360299999999999 -0.3397414 0.0
H H 0.15050000000000002 1.1888 -0.3683 0.0
C C 0.22209099999999998 1.2401200000000001 -0.3102514 0.0
H H 0.21899999999999997 1.2737 -0.2565 0.0
C C 0.293931 1.0291299999999999 -0.4182315 0.0
C C 0.17656899999999998 0.90183 -0.4230215 0.0
C C 0.16447099999999998 1.05643 -0.2676515 0.0
C C 0.22230100000000003 1.37113 -0.3661815 0.0
C C 0.39304890000000003 1.0568300000000002 -0.2488818 0.0
H H 0.36860000000000004 0.9938 -0.2731 0.0
C C 0.4330888 1.00003 -0.1975419 0.0
H H 0.435 0.9012 -0.1882 0.0
C C 0.470419 1.09063 -0.1598317 0.0
C C 0.4642688 1.23673 -0.17642 0.0
H H 0.4875 1.3029 -0.1518 0.0
C C 0.42340880000000003 1.28363 -0.22962 0.0
H H 0.4207 1.3816000000000002 -0.2412 0.0
C C 0.5735110999999999 0.85043 -0.0572219 0.0
H H 0.5839 0.7552 -0.06 0.0
C C 0.5312711999999999 0.89463 -0.10802 0.0
H H 0.5139 0.8300000000000001 -0.1442 0.0
C C 0.514851 1.0366300000000002 -0.1046516 0.0
C C 0.5418411 1.12603 -0.0489318 0.0
H H 0.5318 1.221 -0.044 0.0
C C 0.5840411 1.07413 -0.0002918 0.0
H H 0.6019 1.1362999999999999 0.0367 0.0
Zn Zn 0.6730961 1.297253 0.84232817 0.0
Zn Zn 0.6723671099999999 0.8936930000000001 1.04948817 0.0
O O 0.732796 1.1575118 0.806891 0.0
O O 0.677837 1.1335199999999999 0.9249111999999999 0.0
O O 0.707947 0.91482 0.9583412 0.0
O O 0.802018 0.7836219 0.9008412 0.0
O O 0.865228 0.9119200000000001 0.9662013 0.0
O O 0.818207 0.93312 0.7525511 0.0
O O 0.863679 1.1234199999999999 0.7285813 0.0
O O 0.817437 1.4448119 0.8742912 0.0
O O 0.740687 1.39402 0.8987012 0.0
N N 0.6123190000000001 1.1958199999999999 0.7653814 0.0
N N 0.399802 0.93872 0.5041314 0.0
C C 0.742039 1.0320200000000002 0.8581014 0.0
H H 0.7375 0.9445 0.8254 0.0
C C 0.796559 1.04213 0.8984014 0.0
H H 0.7968999999999999 1.0992 0.9471 0.0
C C 0.820829 1.1360299999999999 0.8397414000000001 0.0
H H 0.8494999999999999 1.1888 0.8683000000000001 0.0
C C 0.777909 1.2401200000000001 0.8102514000000001 0.0
H H 0.781 1.2737 0.7565 0.0
C C 0.7060690000000001 1.0291299999999999 0.9182315 0.0
C C 0.823431 0.90183 0.9230214999999999 0.0
C C 0.835529 1.05643 0.7676514999999999 0.0
C C 0.7776989999999999 1.37113 0.8661814999999999 0.0
C C 0.6069511 1.0568300000000002 0.7488817999999999 0.0
H H 0.6314 0.9938 0.7731 0.0
C C 0.5669112000000001 1.00003 0.6975419 0.0
H H 0.565 0.9012 0.6882 0.0
C C 0.529581 1.09063 0.6598317 0.0
C C 0.5357312 1.23673 0.67642 0.0
H H 0.5125 1.3029 0.6517999999999999 0.0
C C 0.5765912 1.28363 0.7296199999999999 0.0
H H 0.5793 1.3816000000000002 0.7412 0.0
C C 0.4264889 0.85043 0.5572219 0.0
H H 0.4161 0.7552 0.56 0.0
C C 0.4687288 0.89463 0.60802 0.0
H H 0.4861 0.8300000000000001 0.6442 0.0
C C 0.485149 1.0366300000000002 0.6046516 0.0
C C 0.4581589 1.12603 0.5489318 0.0
H H 0.4682 1.221 0.544 0.0
C C 0.4159589 1.07413 0.5002918 0.0
H H 0.3981 1.1362999999999999 0.4633 0.0
Zn Zn 0.1730961 -0.797253 0.34232817 0.0
Zn Zn 0.17236711 -0.393693 0.54948817 0.0
O O 0.232796 -0.6575118 0.306891 0.0
O O 0.177837 -0.63352 0.4249112 0.0
O O 0.207947 -0.41482 0.4583412 0.0
O O 0.302018 -0.2836219 0.4008412 0.0
O O 0.365228 -0.41192 0.4662013 0.0
O O 0.318207 -0.43312 0.2525511 0.0
O O 0.363679 -0.62342 0.2285813 0.0
O O 0.317437 -0.9448119 0.3742912 0.0
O O 0.240687 -0.89402 0.3987012 0.0
N N 0.112319 -0.69582 0.2653814 0.0
N N -0.100198 -0.43872 0.0041314 0.0
C C 0.242039 -0.53202 0.3581014 0.0
H H 0.2375 -0.4445 0.3254 0.0
C C 0.296559 -0.54213 0.3984014 0.0
H H 0.2969 -0.5992 0.4471 0.0
C C 0.320829 -0.63603 0.3397414 0.0
H H 0.3495 -0.6888 0.3683 0.0
C C 0.277909 -0.74012 0.3102514 0.0
H H 0.281 -0.7737 0.2565 0.0
C C 0.206069 -0.52913 0.4182315 0.0
C C 0.323431 -0.40183 0.4230215 0.0
C C 0.335529 -0.55643 0.2676515 0.0
C C 0.277699 -0.87113 0.3661815 0.0
C C 0.1069511 -0.55683 0.2488818 0.0
H H 0.1314 -0.4938 0.2731 0.0
C C 0.0669112 -0.50003 0.1975419 0.0
H H 0.065 -0.4012 0.1882 0.0
C C 0.029581 -0.59063 0.1598317 0.0
C C 0.0357312 -0.73673 0.17642 0.0
H H 0.0125 -0.8029 0.1518 0.0
C C 0.0765912 -0.78363 0.22962 0.0
H H 0.0793 -0.8816 0.2412 0.0
C C -0.0735111 -0.35043 0.0572219 0.0
H H -0.0839 -0.2552 0.06 0.0
C C -0.0312712 -0.39463 0.10802 0.0
H H -0.0139 -0.33 0.1442 0.0
C C -0.014851 -0.53663 0.1046516 0.0
C C -0.0418411 -0.62603 0.0489318 0.0
H H -0.0318 -0.721 0.044 0.0
C C -0.0840411 -0.57413 0.0002918 0.0
H H -0.1019 -0.6363 -0.0367 0.0
Zn Zn -0.1730961 -0.797253 -0.84232817 0.0
Zn Zn -0.17236711 -0.393693 -1.04948817 0.0
O O -0.232796 -0.6575118 -0.806891 0.0
O O -0.177837 -0.63352 -0.9249111999999999 0.0
O O -0.207947 -0.41482 -0.9583412 0.0
O O -0.302018 -0.2836219 -0.9008412 0.0
O O -0.365228 -0.41192 -0.9662013 0.0
O O -0.318207 -0.43312 -0.7525511 0.0
O O -0.363679 -0.62342 -0.7285813 0.0
O O -0.317437 -0.9448119 -0.8742912 0.0
O O -0.240687 -0.89402 -0.8987012 0.0
N N -0.112319 -0.69582 -0.7653814 0.0
N N 0.100198 -0.43872 -0.5041314 0.0
C C -0.242039 -0.53202 -0.8581014 0.0
H H -0.2375 -0.4445 -0.8254 0.0
C C -0.296559 -0.54213 -0.8984014 0.0
H H -0.2969 -0.5992 -0.9471 0.0
C C -0.320829 -0.63603 -0.8397414000000001 0.0
H H -0.3495 -0.6888 -0.8683000000000001 0.0
C C -0.277909 -0.74012 -0.8102514000000001 0.0
H H -0.281 -0.7737 -0.7565 0.0
C C -0.206069 -0.52913 -0.9182315 0.0
C C -0.323431 -0.40183 -0.9230214999999999 0.0
C C -0.335529 -0.55643 -0.7676514999999999 0.0
C C -0.277699 -0.87113 -0.8661814999999999 0.0
C C -0.1069511 -0.55683 -0.7488817999999999 0.0
H H -0.1314 -0.4938 -0.7731 0.0
C C -0.0669112 -0.50003 -0.6975419 0.0
H H -0.065 -0.4012 -0.6882 0.0
C C -0.029581 -0.59063 -0.6598317 0.0
C C -0.0357312 -0.73673 -0.67642 0.0
H H -0.0125 -0.8029 -0.6517999999999999 0.0
C C -0.0765912 -0.78363 -0.7296199999999999 0.0
H H -0.0793 -0.8816 -0.7412 0.0
C C 0.0735111 -0.35043 -0.5572219 0.0
H H 0.0839 -0.2552 -0.56 0.0
C C 0.0312712 -0.39463 -0.60802 0.0
H H 0.0139 -0.33 -0.6442 0.0
C C 0.014851 -0.53663 -0.6046516 0.0
C C 0.0418411 -0.62603 -0.5489318 0.0
H H 0.0318 -0.721 -0.544 0.0
C C 0.0840411 -0.57413 -0.5002918 0.0
H H 0.1019 -0.6363 -0.4633 0.0
Zn Zn 0.6730961 -0.297253 0.34232817 0.0
Zn Zn 0.6723671099999999 0.10630699999999998 0.54948817 0.0
O O 0.732796 -0.15751179999999998 0.306891 0.0
O O 0.677837 -0.13351999999999997 0.4249112 0.0
O O 0.707947 0.08517999999999998 0.4583412 0.0
O O 0.802018 0.21637810000000002 0.4008412 0.0
O O 0.865228 0.08807999999999999 0.4662013 0.0
O O 0.818207 0.06688 0.2525511 0.0
O O 0.863679 -0.12341999999999997 0.2285813 0.0
O O 0.817437 -0.44481190000000004 0.3742912 0.0
O O 0.740687 -0.39402000000000004 0.3987012 0.0
N N 0.6123190000000001 -0.19582 0.2653814 0.0
N N 0.399802 0.06128 0.0041314 0.0
C C 0.742039 -0.03202000000000005 0.3581014 0.0
H H 0.7375 0.055499999999999994 0.3254 0.0
C C 0.796559 -0.04213 0.3984014 0.0
H H 0.7968999999999999 -0.09919999999999995 0.4471 0.0
C C 0.820829 -0.13602999999999998 0.3397414 0.0
H H 0.8494999999999999 -0.18879999999999997 0.3683 0.0
C C 0.777909 -0.24012 0.3102514 0.0
H H 0.781 -0.27370000000000005 0.2565 0.0
C C 0.7060690000000001 -0.02912999999999999 0.4182315 0.0
C C 0.823431 0.09816999999999998 0.4230215 0.0
C C 0.835529 -0.05642999999999998 0.2676515 0.0
C C 0.7776989999999999 -0.37112999999999996 0.3661815 0.0
C C 0.6069511 -0.05683000000000005 0.2488818 0.0
H H 0.6314 0.006199999999999983 0.2731 0.0
C C 0.5669112000000001 -2.999999999997449e-05 0.1975419 0.0
H H 0.565 0.0988 0.1882 0.0
C C 0.529581 -0.09062999999999999 0.1598317 0.0
C C 0.5357312 -0.23673 0.17642 0.0
H H 0.5125 -0.30289999999999995 0.1518 0.0
C C 0.5765912 -0.28363000000000005 0.22962 0.0
H H 0.5793 -0.38160000000000005 0.2412 0.0
C C 0.4264889 0.14956999999999998 0.0572219 0.0
H H 0.4161 0.24480000000000002 0.06 0.0
C C 0.4687288 0.10537000000000002 0.10802 0.0
H H 0.4861 0.16999999999999998 0.1442 0.0
C C 0.485149 -0.03663000000000005 0.1046516 0.0
C C 0.4581589 -0.12602999999999998 0.0489318 0.0
H H 0.4682 -0.22099999999999997 0.044 0.0
C C 0.4159589 -0.07413000000000003 0.0002918 0.0
H H 0.3981 -0.13629999999999998 -0.0367 0.0
Zn Zn 0.3269039 -0.297253 -0.84232817 0.0
Zn Zn 0.32763289 0.10630699999999998 -1.04948817 0.0
O O 0.267204 -0.15751179999999998 -0.806891 0.0
O O 0.322163 -0.13351999999999997 -0.9249111999999999 0.0
O O 0.292053 0.08517999999999998 -0.9583412 0.0
O O 0.197982 0.21637810000000002 -0.9008412 0.0
O O 0.134772 0.08807999999999999 -0.9662013 0.0
O O 0.18179299999999998 0.06688 -0.7525511 0.0
O O 0.13632100000000003 -0.12341999999999997 -0.7285813 0.0
O O 0.18256299999999998 -0.44481190000000004 -0.8742912 0.0
O O 0.259313 -0.39402000000000004 -0.8987012 0.0
N N 0.387681 -0.19582 -0.7653814 0.0
N N 0.600198 0.06128 -0.5041314 0.0
C C 0.257961 -0.03202000000000005 -0.8581014 0.0
H H 0.2625 0.055499999999999994 -0.8254 0.0
C C 0.20344099999999998 -0.04213 -0.8984014 0.0
H H 0.2031 -0.09919999999999995 -0.9471 0.0
C C 0.17917100000000002 -0.13602999999999998 -0.8397414000000001 0.0
H H 0.15050000000000002 -0.18879999999999997 -0.8683000000000001 0.0
C C 0.22209099999999998 -0.24012 -0.8102514000000001 0.0
H H 0.21899999999999997 -0.27370000000000005 -0.7565 0.0
C C 0.293931 -0.02912999999999999 -0.9182315 0.0
C C 0.17656899999999998 0.09816999999999998 -0.9230214999999999 0.0
C C 0.16447099999999998 -0.05642999999999998 -0.7676514999999999 0.0
C C 0.22230100000000003 -0.37112999999999996 -0.8661814999999999 0.0
C C 0.39304890000000003 -0.05683000000000005 -0.7488817999999999 0.0
H H 0.36860000000000004 0.006199999999999983 -0.7731 0.0
C C 0.4330888 -2.999999999997449e-05 -0.6975419 0.0
H H 0.435 0.0988 -0.6882 0.0
C C 0.470419 -0.09062999999999999 -0.6598317 0.0
C C 0.4642688 -0.23673 -0.67642 0.0
H H 0.4875 -0.30289999999999995 -0.6517999999999999 0.0
C C 0.42340880000000003 -0.28363000000000005 -0.7296199999999999 0.0
H H 0.4207 -0.38160000000000005 -0.7412 0.0
C C 0.5735110999999999 0.14956999999999998 -0.5572219 0.0
H H 0.5839 0.24480000000000002 -0.56 0.0
C C 0.5312711999999999 0.10537000000000002 -0.60802 0.0
H H 0.5139 0.16999999999999998 -0.6442 0.0
C C 0.514851 -0.03663000000000005 -0.6046516 0.0
C C 0.5418411 -0.12602999999999998 -0.5489318 0.0
H H 0.5318 -0.22099999999999997 -0.544 0.0
C C 0.5840411 -0.07413000000000003 -0.5002918 0.0
H H 0.6019 -0.13629999999999998 -0.4633 0.0
_cell_length_a 27.1013
_cell_length_b 9.27321
_cell_length_c 16.979215
_cell_angle_alpha 90.0
_cell_angle_beta 99.1565
_cell_angle_gamma 90.0
_symmetry_space_group_name_H-M         'P 1'
_symmetry_Int_Tables_number            1
loop_
_symmetry_equiv_pos_as_xyz
   'x, y, z'
                         
loop_
_atom_site_label
_atom_site_type_symbol
_atom_site_fract_x 
_atom_site_fract_y
_atom_site_fract_z
_atom_site_charge
Zn Zn -0.1730961 0.797253 -0.34232817 0.0
Zn Zn -0.17236711 0.393693 -0.54948817 0.0
O O -0.232796 0.6575118 -0.306891 0.0
O O -0.177837 0.63352 -0.4249112 0.0
O O -0.207947 0.41482 -0.4583412 0.0
O O -0.302018 0.2836219 -0.4008412 0.0
O O -0.365228 0.41192 -0.4662013 0.0
O O -0.318207 0.43312 -0.2525511 0.0
O O -0.363679 0.62342 -0.2285813 0.0
O O -0.317437 0.9448119 -0.3742912 0.0
O O -0.240687 0.89402 -0.3987012 0.0
N N -0.112319 0.69582 -0.2653814 0.0
N N 0.100198 0.43872 -0.0041314 0.0
C C -0.242039 0.53202 -0.3581014 0.0
H H -0.2375 0.4445 -0.3254 0.0
C C -0.296559 0.54213 -0.3984014 0.0
H H -0.2969 0.5992 -0.4471 0.0
C C -0.320829 0.63603 -0.3397414 0.0
H H -0.3495 0.6888 -0.3683 0.0
C C -0.277909 0.74012 -0.3102514 0.0
H H -0.281 0.7737 -0.2565 0.0
C C -0.206069 0.52913 -0.4182315 0.0
C C -0.323431 0.40183 -0.4230215 0.0
C C -0.335529 0.55643 -0.2676515 0.0
C C -0.277699 0.87113 -0.3661815 0.0
C C -0.1069511 0.55683 -0.2488818 0.0
H H -0.1314 0.4938 -0.2731 0.0
C C -0.0669112 0.50003 -0.1975419 0.0
H H -0.065 0.4012 -0.1882 0.0
C C -0.029581 0.59063 -0.1598317 0.0
C C -0.0357312 0.73673 -0.17642 0.0
H H -0.0125 0.8029 -0.1518 0.0
C C -0.0765912 0.78363 -0.22962 0.0
H H -0.0793 0.8816 -0.2412 0.0
C C 0.0735111 0.35043 -0.0572219 0.0
H H 0.0839 0.2552 -0.06 0.0
C C 0.0312712 0.39463 -0.10802 0.0
H H 0.0139 0.33 -0.1442 0.0
C C 0.014851 0.53663 -0.1046516 0.0
C C 0.0418411 0.62603 -0.0489318 0.0
H H 0.0318 0.721 -0.044 0.0
C C 0.0840411 0.57413 -0.0002918 0.0
H H 0.1019 0.6363 0.0367 0.0
Zn Zn 0.1730961 0.797253 0.84232817 0.0
Zn Zn 0.17236711 0.393693 1.04948817 0.0
O O 0.232796 0.6575118 0.806891 0.0
O O 0.177837 0.63352 0.9249111999999999 0.0
O O 0.207947 0.41482 0.9583412 0.0
O O 0.302018 0.2836219 0.9008412 0.0
O O 0.365228 0.41192 0.9662013 0.0
O O 0.318207 0.43312 0.7525511 0.0
O O 0.363679 0.62342 0.7285813 0.0
O O 0.317437 0.9448119 0.8742912 0.0
O O 0.240687 0.89402 0.8987012 0.0
N N 0.112319 0.69582 0.7653814 0.0
N N -0.100198 0.43872 0.5041314 0.0
C C 0.242039 0.53202 0.8581014 0.0
H H 0.2375 0.4445 0.8254 0.0
C C 0.296559 0.54213 0.8984014 0.0
H H 0.2969 0.5992 0.9471 0.0
C C 0.320829 0.63603 0.8397414000000001 0.0
H H 0.3495 0.6888 0.8683000000000001 0.0
C C 0.277909 0.74012 0.8102514000000001 0.0
H H 0.281 0.7737 0.7565 0.0
C C 0.206069 0.52913 0.9182315 0.0
C C 0.323431 0.40183 0.9230214999999999 0.0
C C 0.335529 0.55643 0.7676514999999999 0.0
C C 0.277699 0.87113 0.8661814999999999 0.0
C C 0.1069511 0.55683 0.7488817999999999 0.0
H H 0.1314 0.4938 0.7731 0.0
C C 0.0669112 0.50003 0.6975419 0.0
H H 0.065 0.4012 0.6882 0.0
C C 0.029581 0.59063 0.6598317 0.0
C C 0.0357312 0.73673 0.67642 0.0
H H 0.0125 0.8029 0.6517999999999999 0.0
C C 0.0765912 0.78363 0.7296199999999999 0.0
H H 0.0793 0.8816 0.7412 0.0
C C -0.0735111 0.35043 0.5572219 0.0
H H -0.0839 0.2552 0.56 0.0
C C -0.0312712 0.39463 0.60802 0.0
H H -0.0139 0.33 0.6442 0.0
C C -0.014851 0.53663 0.6046516 0.0
C C -0.0418411 0.62603 0.5489318 0.0
H H -0.0318 0.721 0.544 0.0
C C -0.0840411 0.57413 0.5002918 0.0
H H -0.1019 0.6363 0.4633 0.0
Zn Zn 0.3269039 1.297253 -0.34232817 0.0
Zn Zn 0.32763289 0.8936930000000001 -0.54948817 0.0
O O 0.267204 1.1575118 -0.306891 0.0
O O 0.322163 1.1335199999999999 -0.4249112 0.0
O O 0.292053 0.91482 -0.4583412 0.0
O O 0.197982 0.7836219 -0.4008412 0.0
O O 0.134772 0.9119200000000001 -0.4662013 0.0
O O 0.18179299999999998 0.93312 -0.2525511 0.0
O O 0.13632100000000003 1.1234199999999999 -0.2285813 0.0
O O 0.18256299999999998 1.4448119 -0.3742912 0.0
O O 0.259313 1.39402 -0.3987012 0.0
N N 0.387681 1.1958199999999999 -0.2653814 0.0
N N 0.600198 0.93872 -0.0041314 0.0
C C 0.257961 1.0320200000000002 -0.3581014 0.0
H H 0.2625 0.9445 -0.3254 0.0
C C 0.20344099999999998 1.04213 -0.3984014 0.0
H H 0.2031 1.0992 -0.4471 0.0
C C 0.17917100000000002 1.1360299999999999 -0.3397414 0.0
H H 0.15050000000000002 1.1888 -0.3683 0.0
C C 0.22209099999999998 1.2401200000000001 -0.3102514 0.0
H H 0.21899999999999997 1.2737 -0.2565 0.0
C C 0.293931 1.0291299999999999 -0.4182315 0.0
C C 0.17656899999999998 0.90183 -0.4230215 0.0
C C 0.16447099999999998 1.05643 -0.2676515 0.0
C C 0.22230100000000003 1.37113 -0.3661815 0.0
C C 0.39304890000000003 1.0568300000000002 -0.2488818 0.0
H H 0.36860000000000004 0.9938 -0.2731 0.0
C C 0.4330888 1.00003 -0.1975419 0.0
H H 0.435 0.9012 -0.1882 0.0
C C 0.470419 1.09063 -0.1598317 0.0
C C 0.4642688 1.23673 -0.17642 0.0
H H 0.4875 1.3029 -0.1518 0.0
C C 0.42340880000000003 1.28363 -0.22962 0.0
H H 0.4207 1.3816000000000002 -0.2412 0.0
C C 0.5735110999999999 0.85043 -0.0572219 0.0
H H 0.5839 0.7552 -0.06 0.0
C C 0.5312711999999999 0.89463 -0.10802 0.0
H H 0.5139 0.8300000000000001 -0.1442 0.0
C C 0.514851 1.0366300000000002 -0.1046516 0.0
C C 0.5418411 1.12603 -0.0489318 0.0
H H 0.5318 1.221 -0.044 0.0
C C 0.5840411 1.07413 -0.0002918 0.0
H H 0.6019 1.1362999999999999 0.0367 0.0
Zn Zn 0.6730961 1.297253 0.84232817 0.0
Zn Zn 0.6723671099999999 0.8936930000000001 1.04948817 0.0
O O 0.732796 1.1575118 0.806891 0.0
O O 0.677837 1.1335199999999999 0.9249111999999999 0.0
O O 0.707947 0.91482 0.9583412 0.0
O O 0.802018 0.7836219 0.9008412 0.0
O O 0.865228 0.9119200000000001 0.9662013 0.0
O O 0.818207 0.93312 0.7525511 0.0
O O 0.863679 1.1234199999999999 0.7285813 0.0
O O 0.817437 1.4448119 0.8742912 0.0
O O 0.740687 1.39402 0.8987012 0.0
N N 0.6123190000000001 1.1958199999999999 0.7653814 0.0
N N 0.399802 0.93872 0.5041314 0.0
C C 0.742039 1.0320200000000002 0.8581014 0.0
H H 0.7375 0.9445 0.8254 0.0
C C 0.796559 1.04213 0.8984014 0.0
H H 0.7968999999999999 1.0992 0.9471 0.0
C C 0.820829 1.1360299999999999 0.8397414000000001 0.0
H H 0.8494999999999999 1.1888 0.8683000000000001 0.0
C C 0.777909 1.2401200000000001 0.8102514000000001 0.0
H H 0.781 1.2737 0.7565 0.0
C C 0.7060690000000001 1.0291299999999999 0.9182315 0.0
C C 0.823431 0.90183 0.9230214999999999 0.0
C C 0.835529 1.05643 0.7676514999999999 0.0
C C 0.7776989999999999 1.37113 0.8661814999999999 0.0
C C 0.6069511 1.0568300000000002 0.7488817999999999 0.0
H H 0.6314 0.9938 0.7731 0.0
C C 0.5669112000000001 1.00003 0.6975419 0.0
H H 0.565 0.9012 0.6882 0.0
C C 0.529581 1.09063 0.6598317 0.0
C C 0.5357312 1.23673 0.67642 0.0
H H 0.5125 1.3029 0.6517999999999999 0.0
C C 0.5765912 1.28363 0.7296199999999999 0.0
H H 0.5793 1.3816000000000002 0.7412 0.0
C C 0.4264889 0.85043 0.5572219 0.0
H H 0.4161 0.7552 0.56 0.0
C C 0.4687288 0.89463 0.60802 0.0
H H 0.4861 0.8300000000000001 0.6442 0.0
C C 0.485149 1.0366300000000002 0.6046516 0.0
C C 0.4581589 1.12603 0.5489318 0.0
H H 0.4682 1.221 0.544 0.0
C C 0.4159589 1.07413 0.5002918 0.0
H H 0.3981 1.1362999999999999 0.4633 0.0
Zn Zn 0.1730961 -0.797253 0.34232817 0.0
Zn Zn 0.17236711 -0.393693 0.54948817 0.0
O O 0.232796 -0.6575118 0.306891 0.0
O O 0.177837 -0.63352 0.4249112 0.0
O O 0.207947 -0.41482 0.4583412 0.0
O O 0.302018 -0.2836219 0.4008412 0.0
O O 0.365228 -0.41192 0.4662013 0.0
O O 0.318207 -0.43312 0.2525511 0.0
O O 0.363679 -0.62342 0.2285813 0.0
O O 0.317437 -0.9448119 0.3742912 0.0
O O 0.240687 -0.89402 0.3987012 0.0
N N 0.112319 -0.69582 0.2653814 0.0
N N -0.100198 -0.43872 0.0041314 0.0
C C 0.242039 -0.53202 0.3581014 0.0
H H 0.2375 -0.4445 0.3254 0.0
C C 0.296559 -0.54213 0.3984014 0.0
H H 0.2969 -0.5992 0.4471 0.0
C C 0.320829 -0.63603 0.3397414 0.0
H H 0.3495 -0.6888 0.3683 0.0
C C 0.277909 -0.74012 0.3102514 0.0
H H 0.281 -0.7737 0.2565 0.0
C C 0.206069 -0.52913 0.4182315 0.0
C C 0.323431 -0.40183 0.4230215 0.0
C C 0.335529 -0.55643 0.2676515 0.0
C C 0.277699 -0.87113 0.3661815 0.0
C C 0.1069511 -0.55683 0.2488818 0.0
H H 0.1314 -0.4938 0.2731 0.0
C C 0.0669112 -0.50003 0.1975419 0.0
H H 0.065 -0.4012 0.1882 0.0
C C 0.029581 -0.59063 0.1598317 0.0
C C 0.0357312 -0.73673 0.17642 0.0
H H 0.0125 -0.8029 0.1518 0.0
C C 0.0765912 -0.78363 0.22962 0.0
H H 0.0793 -0.8816 0.2412 0.0
C C -0.0735111 -0.35043 0.0572219 0.0
H H -0.0839 -0.2552 0.06 0.0
C C -0.0312712 -0.39463 0.10802 0.0
H H -0.0139 -0.33 0.1442 0.0
C C -0.014851 -0.53663 0.1046516 0.0
C C -0.0418411 -0.62603 0.0489318 0.0
H H -0.0318 -0.721 0.044 0.0
C C -0.0840411 -0.57413 0.0002918 0.0
H H -0.1019 -0.6363 -0.0367 0.0
Zn Zn -0.1730961 -0.797253 -0.84232817 0.0
Zn Zn -0.17236711 -0.393693 -1.04948817 0.0
O O -0.232796 -0.6575118 -0.806891 0.0
O O -0.177837 -0.63352 -0.9249111999999999 0.0
O O -0.207947 -0.41482 -0.9583412 0.0
O O -0.302018 -0.2836219 -0.9008412 0.0
O O -0.365228 -0.41192 -0.9662013 0.0
O O -0.318207 -0.43312 -0.7525511 0.0
O O -0.363679 -0.62342 -0.7285813 0.0
O O -0.317437 -0.9448119 -0.8742912 0.0
O O -0.240687 -0.89402 -0.8987012 0.0
N N -0.112319 -0.69582 -0.7653814 0.0
N N 0.100198 -0.43872 -0.5041314 0.0
C C -0.242039 -0.53202 -0.8581014 0.0
H H -0.2375 -0.4445 -0.8254 0.0
C C -0.296559 -0.54213 -0.8984014 0.0
H H -0.2969 -0.5992 -0.9471 0.0
C C -0.320829 -0.63603 -0.8397414000000001 0.0
H H -0.3495 -0.6888 -0.8683000000000001 0.0
C C -0.277909 -0.74012 -0.8102514000000001 0.0
H H -0.281 -0.7737 -0.7565 0.0
C C -0.206069 -0.52913 -0.9182315 0.0
C C -0.323431 -0.40183 -0.9230214999999999 0.0
C C -0.335529 -0.55643 -0.7676514999999999 0.0
C C -0.277699 -0.87113 -0.8661814999999999 0.0
C C -0.1069511 -0.55683 -0.7488817999999999 0.0
H H -0.1314 -0.4938 -0.7731 0.0
C C -0.0669112 -0.50003 -0.6975419 0.0
H H -0.065 -0.4012 -0.6882 0.0
C C -0.029581 -0.59063 -0.6598317 0.0
C C -0.0357312 -0.73673 -0.67642 0.0
H H -0.0125 -0.8029 -0.6517999999999999 0.0
C C -0.0765912 -0.78363 -0.7296199999999999 0.0
H H -0.0793 -0.8816 -0.7412 0.0
C C 0.0735111 -0.35043 -0.5572219 0.0
H H 0.0839 -0.2552 -0.56 0.0
C C 0.0312712 -0.39463 -0.60802 0.0
H H 0.0139 -0.33 -0.6442 0.0
C C 0.014851 -0.53663 -0.6046516 0.0
C C 0.0418411 -0.62603 -0.5489318 0.0
H H 0.0318 -0.721 -0.544 0.0
C C 0.0840411 -0.57413 -0.5002918 0.0
H H 0.1019 -0.6363 -0.4633 0.0
Zn Zn 0.6730961 -0.297253 0.34232817 0.0
Zn Zn 0.6723671099999999 0.10630699999999998 0.54948817 0.0
O O 0.732796 -0.15751179999999998 0.306891 0.0
O O 0.677837 -0.13351999999999997 0.4249112 0.0
O O 0.707947 0.08517999999999998 0.4583412 0.0
O O 0.802018 0.21637810000000002 0.4008412 0.0
O O 0.865228 0.08807999999999999 0.4662013 0.0
O O 0.818207 0.06688 0.2525511 0.0
O O 0.863679 -0.12341999999999997 0.2285813 0.0
O O 0.817437 -0.44481190000000004 0.3742912 0.0
O O 0.740687 -0.39402000000000004 0.3987012 0.0
N N 0.6123190000000001 -0.19582 0.2653814 0.0
N N 0.399802 0.06128 0.0041314 0.0
C C 0.742039 -0.03202000000000005 0.3581014 0.0
H H 0.7375 0.055499999999999994 0.3254 0.0
C C 0.796559 -0.04213 0.3984014 0.0
H H 0.7968999999999999 -0.09919999999999995 0.4471 0.0
C C 0.820829 -0.13602999999999998 0.3397414 0.0
H H 0.8494999999999999 -0.18879999999999997 0.3683 0.0
C C 0.777909 -0.24012 0.3102514 0.0
H H 0.781 -0.27370000000000005 0.2565 0.0
C C 0.7060690000000001 -0.02912999999999999 0.4182315 0.0
C C 0.823431 0.09816999999999998 0.4230215 0.0
C C 0.835529 -0.05642999999999998 0.2676515 0.0
C C 0.7776989999999999 -0.37112999999999996 0.3661815 0.0
C C 0.6069511 -0.05683000000000005 0.2488818 0.0
H H 0.6314 0.006199999999999983 0.2731 0.0
C C 0.5669112000000001 -2.999999999997449e-05 0.1975419 0.0
H H 0.565 0.0988 0.1882 0.0
C C 0.529581 -0.09062999999999999 0.1598317 0.0
C C 0.5357312 -0.23673 0.17642 0.0
H H 0.5125 -0.30289999999999995 0.1518 0.0
C C 0.5765912 -0.28363000000000005 0.22962 0.0
H H 0.5793 -0.38160000000000005 0.2412 0.0
C C 0.4264889 0.14956999999999998 0.0572219 0.0
H H 0.4161 0.24480000000000002 0.06 0.0
C C 0.4687288 0.10537000000000002 0.10802 0.0
H H 0.4861 0.16999999999999998 0.1442 0.0
C C 0.485149 -0.03663000000000005 0.1046516 0.0
C C 0.4581589 -0.12602999999999998 0.0489318 0.0
H H 0.4682 -0.22099999999999997 0.044 0.0
C C 0.4159589 -0.07413000000000003 0.0002918 0.0
H H 0.3981 -0.13629999999999998 -0.0367 0.0
Zn Zn 0.3269039 -0.297253 -0.84232817 0.0
Zn Zn 0.32763289 0.10630699999999998 -1.04948817 0.0
O O 0.267204 -0.15751179999999998 -0.806891 0.0
O O 0.322163 -0.13351999999999997 -0.9249111999999999 0.0
O O 0.292053 0.08517999999999998 -0.9583412 0.0
O O 0.197982 0.21637810000000002 -0.9008412 0.0
O O 0.134772 0.08807999999999999 -0.9662013 0.0
O O 0.18179299999999998 0.06688 -0.7525511 0.0
O O 0.13632100000000003 -0.12341999999999997 -0.7285813 0.0
O O 0.18256299999999998 -0.44481190000000004 -0.8742912 0.0
O O 0.259313 -0.39402000000000004 -0.8987012 0.0
N N 0.387681 -0.19582 -0.7653814 0.0
N N 0.600198 0.06128 -0.5041314 0.0
C C 0.257961 -0.03202000000000005 -0.8581014 0.0
H H 0.2625 0.055499999999999994 -0.8254 0.0
C C 0.20344099999999998 -0.04213 -0.8984014 0.0
H H 0.2031 -0.09919999999999995 -0.9471 0.0
C C 0.17917100000000002 -0.13602999999999998 -0.8397414000000001 0.0
H H 0.15050000000000002 -0.18879999999999997 -0.8683000000000001 0.0
C C 0.22209099999999998 -0.24012 -0.8102514000000001 0.0
H H 0.21899999999999997 -0.27370000000000005 -0.7565 0.0
C C 0.293931 -0.02912999999999999 -0.9182315 0.0
C C 0.17656899999999998 0.09816999999999998 -0.9230214999999999 0.0
C C 0.16447099999999998 -0.05642999999999998 -0.7676514999999999 0.0
C C 0.22230100000000003 -0.37112999999999996 -0.8661814999999999 0.0
C C 0.39304890000000003 -0.05683000000000005 -0.7488817999999999 0.0
H H 0.36860000000000004 0.006199999999999983 -0.7731 0.0
C C 0.4330888 -2.999999999997449e-05 -0.6975419 0.0
H H 0.435 0.0988 -0.6882 0.0
C C 0.470419 -0.09062999999999999 -0.6598317 0.0
C C 0.4642688 -0.23673 -0.67642 0.0
H H 0.4875 -0.30289999999999995 -0.6517999999999999 0.0
C C 0.42340880000000003 -0.28363000000000005 -0.7296199999999999 0.0
H H 0.4207 -0.38160000000000005 -0.7412 0.0
C C 0.5735110999999999 0.14956999999999998 -0.5572219 0.0
H H 0.5839 0.24480000000000002 -0.56 0.0
C C 0.5312711999999999 0.10537000000000002 -0.60802 0.0
H H 0.5139 0.16999999999999998 -0.6442 0.0
C C 0.514851 -0.03663000000000005 -0.6046516 0.0
C C 0.5418411 -0.12602999999999998 -0.5489318 0.0
H H 0.5318 -0.22099999999999997 -0.544 0.0
C C 0.5840411 -0.07413000000000003 -0.5002918 0.0
H H 0.6019 -0.13629999999999998 -0.4633 0.0
_cell_length_a 27.1013
_cell_length_b 9.27321
_cell_length_c 16.979215
_cell_angle_alpha 90.0
_cell_angle_beta 99.1565
_cell_angle_gamma 90.0
_symmetry_space_group_name_H-M         'P 1'
_symmetry_Int_Tables_number            1
loop_
_symmetry_equiv_pos_as_xyz
   'x, y, z'
                         
loop_
_atom_site_label
_atom_site_type_symbol
_atom_site_fract_x 
_atom_site_fract_y
_atom_site_fract_z
_atom_site_charge
Zn Zn -0.1730961 0.797253 -0.34232817 0.0
Zn Zn -0.17236711 0.393693 -0.54948817 0.0
O O -0.232796 0.6575118 -0.306891 0.0
O O -0.177837 0.63352 -0.4249112 0.0
O O -0.207947 0.41482 -0.4583412 0.0
O O -0.302018 0.2836219 -0.4008412 0.0
O O -0.365228 0.41192 -0.4662013 0.0
O O -0.318207 0.43312 -0.2525511 0.0
O O -0.363679 0.62342 -0.2285813 0.0
O O -0.317437 0.9448119 -0.3742912 0.0
O O -0.240687 0.89402 -0.3987012 0.0
N N -0.112319 0.69582 -0.2653814 0.0
N N 0.100198 0.43872 -0.0041314 0.0
C C -0.242039 0.53202 -0.3581014 0.0
H H -0.2375 0.4445 -0.3254 0.0
C C -0.296559 0.54213 -0.3984014 0.0
H H -0.2969 0.5992 -0.4471 0.0
C C -0.320829 0.63603 -0.3397414 0.0
H H -0.3495 0.6888 -0.3683 0.0
C C -0.277909 0.74012 -0.3102514 0.0
H H -0.281 0.7737 -0.2565 0.0
C C -0.206069 0.52913 -0.4182315 0.0
C C -0.323431 0.40183 -0.4230215 0.0
C C -0.335529 0.55643 -0.2676515 0.0
C C -0.277699 0.87113 -0.3661815 0.0
C C -0.1069511 0.55683 -0.2488818 0.0
H H -0.1314 0.4938 -0.2731 0.0
C C -0.0669112 0.50003 -0.1975419 0.0
H H -0.065 0.4012 -0.1882 0.0
C C -0.029581 0.59063 -0.1598317 0.0
C C -0.0357312 0.73673 -0.17642 0.0
H H -0.0125 0.8029 -0.1518 0.0
C C -0.0765912 0.78363 -0.22962 0.0
H H -0.0793 0.8816 -0.2412 0.0
C C 0.0735111 0.35043 -0.0572219 0.0
H H 0.0839 0.2552 -0.06 0.0
C C 0.0312712 0.39463 -0.10802 0.0
H H 0.0139 0.33 -0.1442 0.0
C C 0.014851 0.53663 -0.1046516 0.0
C C 0.0418411 0.62603 -0.0489318 0.0
H H 0.0318 0.721 -0.044 0.0
C C 0.0840411 0.57413 -0.0002918 0.0
H H 0.1019 0.6363 0.0367 0.0
Zn Zn 0.1730961 0.797253 0.84232817 0.0
Zn Zn 0.17236711 0.393693 1.04948817 0.0
O O 0.232796 0.6575118 0.806891 0.0
O O 0.177837 0.63352 0.9249111999999999 0.0
O O 0.207947 0.41482 0.9583412 0.0
O O 0.302018 0.2836219 0.9008412 0.0
O O 0.365228 0.41192 0.9662013 0.0
O O 0.318207 0.43312 0.7525511 0.0
O O 0.363679 0.62342 0.7285813 0.0
O O 0.317437 0.9448119 0.8742912 0.0
O O 0.240687 0.89402 0.8987012 0.0
N N 0.112319 0.69582 0.7653814 0.0
N N -0.100198 0.43872 0.5041314 0.0
C C 0.242039 0.53202 0.8581014 0.0
H H 0.2375 0.4445 0.8254 0.0
C C 0.296559 0.54213 0.8984014 0.0
H H 0.2969 0.5992 0.9471 0.0
C C 0.320829 0.63603 0.8397414000000001 0.0
H H 0.3495 0.6888 0.8683000000000001 0.0
C C 0.277909 0.74012 0.8102514000000001 0.0
H H 0.281 0.7737 0.7565 0.0
C C 0.206069 0.52913 0.9182315 0.0
C C 0.323431 0.40183 0.9230214999999999 0.0
C C 0.335529 0.55643 0.7676514999999999 0.0
C C 0.277699 0.87113 0.8661814999999999 0.0
C C 0.1069511 0.55683 0.7488817999999999 0.0
H H 0.1314 0.4938 0.7731 0.0
C C 0.0669112 0.50003 0.6975419 0.0
H H 0.065 0.4012 0.6882 0.0
C C 0.029581 0.59063 0.6598317 0.0
C C 0.0357312 0.73673 0.67642 0.0
H H 0.0125 0.8029 0.6517999999999999 0.0
C C 0.0765912 0.78363 0.7296199999999999 0.0
H H 0.0793 0.8816 0.7412 0.0
C C -0.0735111 0.35043 0.5572219 0.0
H H -0.0839 0.2552 0.56 0.0
C C -0.0312712 0.39463 0.60802 0.0
H H -0.0139 0.33 0.6442 0.0
C C -0.014851 0.53663 0.6046516 0.0
C C -0.0418411 0.62603 0.5489318 0.0
H H -0.0318 0.721 0.544 0.0
C C -0.0840411 0.57413 0.5002918 0.0
H H -0.1019 0.6363 0.4633 0.0
Zn Zn 0.3269039 1.297253 -0.34232817 0.0
Zn Zn 0.32763289 0.8936930000000001 -0.54948817 0.0
O O 0.267204 1.1575118 -0.306891 0.0
O O 0.322163 1.1335199999999999 -0.4249112 0.0
O O 0.292053 0.91482 -0.4583412 0.0
O O 0.197982 0.7836219 -0.4008412 0.0
O O 0.134772 0.9119200000000001 -0.4662013 0.0
O O 0.18179299999999998 0.93312 -0.2525511 0.0
O O 0.13632100000000003 1.1234199999999999 -0.2285813 0.0
O O 0.18256299999999998 1.4448119 -0.3742912 0.0
O O 0.259313 1.39402 -0.3987012 0.0
N N 0.387681 1.1958199999999999 -0.2653814 0.0
N N 0.600198 0.93872 -0.0041314 0.0
C C 0.257961 1.0320200000000002 -0.3581014 0.0
H H 0.2625 0.9445 -0.3254 0.0
C C 0.20344099999999998 1.04213 -0.3984014 0.0
H H 0.2031 1.0992 -0.4471 0.0
C C 0.17917100000000002 1.1360299999999999 -0.3397414 0.0
H H 0.15050000000000002 1.1888 -0.3683 0.0
C C 0.22209099999999998 1.2401200000000001 -0.3102514 0.0
H H 0.21899999999999997 1.2737 -0.2565 0.0
C C 0.293931 1.0291299999999999 -0.4182315 0.0
C C 0.17656899999999998 0.90183 -0.4230215 0.0
C C 0.16447099999999998 1.05643 -0.2676515 0.0
C C 0.22230100000000003 1.37113 -0.3661815 0.0
C C 0.39304890000000003 1.0568300000000002 -0.2488818 0.0
H H 0.36860000000000004 0.9938 -0.2731 0.0
C C 0.4330888 1.00003 -0.1975419 0.0
H H 0.435 0.9012 -0.1882 0.0
C C 0.470419 1.09063 -0.1598317 0.0
C C 0.4642688 1.23673 -0.17642 0.0
H H 0.4875 1.3029 -0.1518 0.0
C C 0.42340880000000003 1.28363 -0.22962 0.0
H H 0.4207 1.3816000000000002 -0.2412 0.0
C C 0.5735110999999999 0.85043 -0.0572219 0.0
H H 0.5839 0.7552 -0.06 0.0
C C 0.5312711999999999 0.89463 -0.10802 0.0
H H 0.5139 0.8300000000000001 -0.1442 0.0
C C 0.514851 1.0366300000000002 -0.1046516 0.0
C C 0.5418411 1.12603 -0.0489318 0.0
H H 0.5318 1.221 -0.044 0.0
C C 0.5840411 1.07413 -0.0002918 0.0
H H 0.6019 1.1362999999999999 0.0367 0.0
Zn Zn 0.6730961 1.297253 0.84232817 0.0
Zn Zn 0.6723671099999999 0.8936930000000001 1.04948817 0.0
O O 0.732796 1.1575118 0.806891 0.0
O O 0.677837 1.1335199999999999 0.9249111999999999 0.0
O O 0.707947 0.91482 0.9583412 0.0
O O 0.802018 0.7836219 0.9008412 0.0
O O 0.865228 0.9119200000000001 0.9662013 0.0
O O 0.818207 0.93312 0.7525511 0.0
O O 0.863679 1.1234199999999999 0.7285813 0.0
O O 0.817437 1.4448119 0.8742912 0.0
O O 0.740687 1.39402 0.8987012 0.0
N N 0.6123190000000001 1.1958199999999999 0.7653814 0.0
N N 0.399802 0.93872 0.5041314 0.0
C C 0.742039 1.0320200000000002 0.8581014 0.0
H H 0.7375 0.9445 0.8254 0.0
C C 0.796559 1.04213 0.8984014 0.0
H H 0.7968999999999999 1.0992 0.9471 0.0
C C 0.820829 1.1360299999999999 0.8397414000000001 0.0
H H 0.8494999999999999 1.1888 0.8683000000000001 0.0
C C 0.777909 1.2401200000000001 0.8102514000000001 0.0
H H 0.781 1.2737 0.7565 0.0
C C 0.7060690000000001 1.0291299999999999 0.9182315 0.0
C C 0.823431 0.90183 0.9230214999999999 0.0
C C 0.835529 1.05643 0.7676514999999999 0.0
C C 0.7776989999999999 1.37113 0.8661814999999999 0.0
C C 0.6069511 1.0568300000000002 0.7488817999999999 0.0
H H 0.6314 0.9938 0.7731 0.0
C C 0.5669112000000001 1.00003 0.6975419 0.0
H H 0.565 0.9012 0.6882 0.0
C C 0.529581 1.09063 0.6598317 0.0
C C 0.5357312 1.23673 0.67642 0.0
H H 0.5125 1.3029 0.6517999999999999 0.0
C C 0.5765912 1.28363 0.7296199999999999 0.0
H H 0.5793 1.3816000000000002 0.7412 0.0
C C 0.4264889 0.85043 0.5572219 0.0
H H 0.4161 0.7552 0.56 0.0
C C 0.4687288 0.89463 0.60802 0.0
H H 0.4861 0.8300000000000001 0.6442 0.0
C C 0.485149 1.0366300000000002 0.6046516 0.0
C C 0.4581589 1.12603 0.5489318 0.0
H H 0.4682 1.221 0.544 0.0
C C 0.4159589 1.07413 0.5002918 0.0
H H 0.3981 1.1362999999999999 0.4633 0.0
Zn Zn 0.1730961 -0.797253 0.34232817 0.0
Zn Zn 0.17236711 -0.393693 0.54948817 0.0
O O 0.232796 -0.6575118 0.306891 0.0
O O 0.177837 -0.63352 0.4249112 0.0
O O 0.207947 -0.41482 0.4583412 0.0
O O 0.302018 -0.2836219 0.4008412 0.0
O O 0.365228 -0.41192 0.4662013 0.0
O O 0.318207 -0.43312 0.2525511 0.0
O O 0.363679 -0.62342 0.2285813 0.0
O O 0.317437 -0.9448119 0.3742912 0.0
O O 0.240687 -0.89402 0.3987012 0.0
N N 0.112319 -0.69582 0.2653814 0.0
N N -0.100198 -0.43872 0.0041314 0.0
C C 0.242039 -0.53202 0.3581014 0.0
H H 0.2375 -0.4445 0.3254 0.0
C C 0.296559 -0.54213 0.3984014 0.0
H H 0.2969 -0.5992 0.4471 0.0
C C 0.320829 -0.63603 0.3397414 0.0
H H 0.3495 -0.6888 0.3683 0.0
C C 0.277909 -0.74012 0.3102514 0.0
H H 0.281 -0.7737 0.2565 0.0
C C 0.206069 -0.52913 0.4182315 0.0
C C 0.323431 -0.40183 0.4230215 0.0
C C 0.335529 -0.55643 0.2676515 0.0
C C 0.277699 -0.87113 0.3661815 0.0
C C 0.1069511 -0.55683 0.2488818 0.0
H H 0.1314 -0.4938 0.2731 0.0
C C 0.0669112 -0.50003 0.1975419 0.0
H H 0.065 -0.4012 0.1882 0.0
C C 0.029581 -0.59063 0.1598317 0.0
C C 0.0357312 -0.73673 0.17642 0.0
H H 0.0125 -0.8029 0.1518 0.0
C C 0.0765912 -0.78363 0.22962 0.0
H H 0.0793 -0.8816 0.2412 0.0
C C -0.0735111 -0.35043 0.0572219 0.0
H H -0.0839 -0.2552 0.06 0.0
C C -0.0312712 -0.39463 0.10802 0.0
H H -0.0139 -0.33 0.1442 0.0
C C -0.014851 -0.53663 0.1046516 0.0
C C -0.0418411 -0.62603 0.0489318 0.0
H H -0.0318 -0.721 0.044 0.0
C C -0.0840411 -0.57413 0.0002918 0.0
H H -0.1019 -0.6363 -0.0367 0.0
Zn Zn -0.1730961 -0.797253 -0.84232817 0.0
Zn Zn -0.17236711 -0.393693 -1.04948817 0.0
O O -0.232796 -0.6575118 -0.806891 0.0
O O -0.177837 -0.63352 -0.9249111999999999 0.0
O O -0.207947 -0.41482 -0.9583412 0.0
O O -0.302018 -0.2836219 -0.9008412 0.0
O O -0.365228 -0.41192 -0.9662013 0.0
O O -0.318207 -0.43312 -0.7525511 0.0
O O -0.363679 -0.62342 -0.7285813 0.0
O O -0.317437 -0.9448119 -0.8742912 0.0
O O -0.240687 -0.89402 -0.8987012 0.0
N N -0.112319 -0.69582 -0.7653814 0.0
N N 0.100198 -0.43872 -0.5041314 0.0
C C -0.242039 -0.53202 -0.8581014 0.0
H H -0.2375 -0.4445 -0.8254 0.0
C C -0.296559 -0.54213 -0.8984014 0.0
H H -0.2969 -0.5992 -0.9471 0.0
C C -0.320829 -0.63603 -0.8397414000000001 0.0
H H -0.3495 -0.6888 -0.8683000000000001 0.0
C C -0.277909 -0.74012 -0.8102514000000001 0.0
H H -0.281 -0.7737 -0.7565 0.0
C C -0.206069 -0.52913 -0.9182315 0.0
C C -0.323431 -0.40183 -0.9230214999999999 0.0
C C -0.335529 -0.55643 -0.7676514999999999 0.0
C C -0.277699 -0.87113 -0.8661814999999999 0.0
C C -0.1069511 -0.55683 -0.7488817999999999 0.0
H H -0.1314 -0.4938 -0.7731 0.0
C C -0.0669112 -0.50003 -0.6975419 0.0
H H -0.065 -0.4012 -0.6882 0.0
C C -0.029581 -0.59063 -0.6598317 0.0
C C -0.0357312 -0.73673 -0.67642 0.0
H H -0.0125 -0.8029 -0.6517999999999999 0.0
C C -0.0765912 -0.78363 -0.7296199999999999 0.0
H H -0.0793 -0.8816 -0.7412 0.0
C C 0.0735111 -0.35043 -0.5572219 0.0
H H 0.0839 -0.2552 -0.56 0.0
C C 0.0312712 -0.39463 -0.60802 0.0
H H 0.0139 -0.33 -0.6442 0.0
C C 0.014851 -0.53663 -0.6046516 0.0
C C 0.0418411 -0.62603 -0.5489318 0.0
H H 0.0318 -0.721 -0.544 0.0
C C 0.0840411 -0.57413 -0.5002918 0.0
H H 0.1019 -0.6363 -0.4633 0.0
Zn Zn 0.6730961 -0.297253 0.34232817 0.0
Zn Zn 0.6723671099999999 0.10630699999999998 0.54948817 0.0
O O 0.732796 -0.15751179999999998 0.306891 0.0
O O 0.677837 -0.13351999999999997 0.4249112 0.0
O O 0.707947 0.08517999999999998 0.4583412 0.0
O O 0.802018 0.21637810000000002 0.4008412 0.0
O O 0.865228 0.08807999999999999 0.4662013 0.0
O O 0.818207 0.06688 0.2525511 0.0
O O 0.863679 -0.12341999999999997 0.2285813 0.0
O O 0.817437 -0.44481190000000004 0.3742912 0.0
O O 0.740687 -0.39402000000000004 0.3987012 0.0
N N 0.6123190000000001 -0.19582 0.2653814 0.0
N N 0.399802 0.06128 0.0041314 0.0
C C 0.742039 -0.03202000000000005 0.3581014 0.0
H H 0.7375 0.055499999999999994 0.3254 0.0
C C 0.796559 -0.04213 0.3984014 0.0
H H 0.7968999999999999 -0.09919999999999995 0.4471 0.0
C C 0.820829 -0.13602999999999998 0.3397414 0.0
H H 0.8494999999999999 -0.18879999999999997 0.3683 0.0
C C 0.777909 -0.24012 0.3102514 0.0
H H 0.781 -0.27370000000000005 0.2565 0.0
C C 0.7060690000000001 -0.02912999999999999 0.4182315 0.0
C C 0.823431 0.09816999999999998 0.4230215 0.0
C C 0.835529 -0.05642999999999998 0.2676515 0.0
C C 0.7776989999999999 -0.37112999999999996 0.3661815 0.0
C C 0.6069511 -0.05683000000000005 0.2488818 0.0
H H 0.6314 0.006199999999999983 0.2731 0.0
C C 0.5669112000000001 -2.999999999997449e-05 0.1975419 0.0
H H 0.565 0.0988 0.1882 0.0
C C 0.529581 -0.09062999999999999 0.1598317 0.0
C C 0.5357312 -0.23673 0.17642 0.0
H H 0.5125 -0.30289999999999995 0.1518 0.0
C C 0.5765912 -0.28363000000000005 0.22962 0.0
H H 0.5793 -0.38160000000000005 0.2412 0.0
C C 0.4264889 0.14956999999999998 0.0572219 0.0
H H 0.4161 0.24480000000000002 0.06 0.0
C C 0.4687288 0.10537000000000002 0.10802 0.0
H H 0.4861 0.16999999999999998 0.1442 0.0
C C 0.485149 -0.03663000000000005 0.1046516 0.0
C C 0.4581589 -0.12602999999999998 0.0489318 0.0
H H 0.4682 -0.22099999999999997 0.044 0.0
C C 0.4159589 -0.07413000000000003 0.0002918 0.0
H H 0.3981 -0.13629999999999998 -0.0367 0.0
Zn Zn 0.3269039 -0.297253 -0.84232817 0.0
Zn Zn 0.32763289 0.10630699999999998 -1.04948817 0.0
O O 0.267204 -0.15751179999999998 -0.806891 0.0
O O 0.322163 -0.13351999999999997 -0.9249111999999999 0.0
O O 0.292053 0.08517999999999998 -0.9583412 0.0
O O 0.197982 0.21637810000000002 -0.9008412 0.0
O O 0.134772 0.08807999999999999 -0.9662013 0.0
O O 0.18179299999999998 0.06688 -0.7525511 0.0
O O 0.13632100000000003 -0.12341999999999997 -0.7285813 0.0
O O 0.18256299999999998 -0.44481190000000004 -0.8742912 0.0
O O 0.259313 -0.39402000000000004 -0.8987012 0.0
N N 0.387681 -0.19582 -0.7653814 0.0
N N 0.600198 0.06128 -0.5041314 0.0
C C 0.257961 -0.03202000000000005 -0.8581014 0.0
H H 0.2625 0.055499999999999994 -0.8254 0.0
C C 0.20344099999999998 -0.04213 -0.8984014 0.0
H H 0.2031 -0.09919999999999995 -0.9471 0.0
C C 0.17917100000000002 -0.13602999999999998 -0.8397414000000001 0.0
H H 0.15050000000000002 -0.18879999999999997 -0.8683000000000001 0.0
C C 0.22209099999999998 -0.24012 -0.8102514000000001 0.0
H H 0.21899999999999997 -0.27370000000000005 -0.7565 0.0
C C 0.293931 -0.02912999999999999 -0.9182315 0.0
C C 0.17656899999999998 0.09816999999999998 -0.9230214999999999 0.0
C C 0.16447099999999998 -0.05642999999999998 -0.7676514999999999 0.0
C C 0.22230100000000003 -0.37112999999999996 -0.8661814999999999 0.0
C C 0.39304890000000003 -0.05683000000000005 -0.7488817999999999 0.0
H H 0.36860000000000004 0.006199999999999983 -0.7731 0.0
C C 0.4330888 -2.999999999997449e-05 -0.6975419 0.0
H H 0.435 0.0988 -0.6882 0.0
C C 0.470419 -0.09062999999999999 -0.6598317 0.0
C C 0.4642688 -0.23673 -0.67642 0.0
H H 0.4875 -0.30289999999999995 -0.6517999999999999 0.0
C C 0.42340880000000003 -0.28363000000000005 -0.7296199999999999 0.0
H H 0.4207 -0.38160000000000005 -0.7412 0.0
C C 0.5735110999999999 0.14956999999999998 -0.5572219 0.0
H H 0.5839 0.24480000000000002 -0.56 0.0
C C 0.5312711999999999 0.10537000000000002 -0.60802 0.0
H H 0.5139 0.16999999999999998 -0.6442 0.0
C C 0.514851 -0.03663000000000005 -0.6046516 0.0
C C 0.5418411 -0.12602999999999998 -0.5489318 0.0
H H 0.5318 -0.22099999999999997 -0.544 0.0
C C 0.5840411 -0.07413000000000003 -0.5002918 0.0
H H 0.6019 -0.13629999999999998 -0.4633 0.0
_cell_length_a 27.1013
_cell_length_b 9.27321
_cell_length_c 16.979215
_cell_angle_alpha 90.0
_cell_angle_beta 99.1565
_cell_angle_gamma 90.0
_symmetry_space_group_name_H-M         'P 1'
_symmetry_Int_Tables_number            1
loop_
_symmetry_equiv_pos_as_xyz
   'x, y, z'
                         
loop_
_atom_site_label
_atom_site_type_symbol
_atom_site_fract_x 
_atom_site_fract_y
_atom_site_fract_z
_atom_site_charge
Zn Zn -0.1730961 0.797253 -0.34232817 0.0
Zn Zn -0.17236711 0.393693 -0.54948817 0.0
O O -0.232796 0.6575118 -0.306891 0.0
O O -0.177837 0.63352 -0.4249112 0.0
O O -0.207947 0.41482 -0.4583412 0.0
O O -0.302018 0.2836219 -0.4008412 0.0
O O -0.365228 0.41192 -0.4662013 0.0
O O -0.318207 0.43312 -0.2525511 0.0
O O -0.363679 0.62342 -0.2285813 0.0
O O -0.317437 0.9448119 -0.3742912 0.0
O O -0.240687 0.89402 -0.3987012 0.0
N N -0.112319 0.69582 -0.2653814 0.0
N N 0.100198 0.43872 -0.0041314 0.0
C C -0.242039 0.53202 -0.3581014 0.0
H H -0.2375 0.4445 -0.3254 0.0
C C -0.296559 0.54213 -0.3984014 0.0
H H -0.2969 0.5992 -0.4471 0.0
C C -0.320829 0.63603 -0.3397414 0.0
H H -0.3495 0.6888 -0.3683 0.0
C C -0.277909 0.74012 -0.3102514 0.0
H H -0.281 0.7737 -0.2565 0.0
C C -0.206069 0.52913 -0.4182315 0.0
C C -0.323431 0.40183 -0.4230215 0.0
C C -0.335529 0.55643 -0.2676515 0.0
C C -0.277699 0.87113 -0.3661815 0.0
C C -0.1069511 0.55683 -0.2488818 0.0
H H -0.1314 0.4938 -0.2731 0.0
C C -0.0669112 0.50003 -0.1975419 0.0
H H -0.065 0.4012 -0.1882 0.0
C C -0.029581 0.59063 -0.1598317 0.0
C C -0.0357312 0.73673 -0.17642 0.0
H H -0.0125 0.8029 -0.1518 0.0
C C -0.0765912 0.78363 -0.22962 0.0
H H -0.0793 0.8816 -0.2412 0.0
C C 0.0735111 0.35043 -0.0572219 0.0
H H 0.0839 0.2552 -0.06 0.0
C C 0.0312712 0.39463 -0.10802 0.0
H H 0.0139 0.33 -0.1442 0.0
C C 0.014851 0.53663 -0.1046516 0.0
C C 0.0418411 0.62603 -0.0489318 0.0
H H 0.0318 0.721 -0.044 0.0
C C 0.0840411 0.57413 -0.0002918 0.0
H H 0.1019 0.6363 0.0367 0.0
Zn Zn 0.1730961 0.797253 0.84232817 0.0
Zn Zn 0.17236711 0.393693 1.04948817 0.0
O O 0.232796 0.6575118 0.806891 0.0
O O 0.177837 0.63352 0.9249111999999999 0.0
O O 0.207947 0.41482 0.9583412 0.0
O O 0.302018 0.2836219 0.9008412 0.0
O O 0.365228 0.41192 0.9662013 0.0
O O 0.318207 0.43312 0.7525511 0.0
O O 0.363679 0.62342 0.7285813 0.0
O O 0.317437 0.9448119 0.8742912 0.0
O O 0.240687 0.89402 0.8987012 0.0
N N 0.112319 0.69582 0.7653814 0.0
N N -0.100198 0.43872 0.5041314 0.0
C C 0.242039 0.53202 0.8581014 0.0
H H 0.2375 0.4445 0.8254 0.0
C C 0.296559 0.54213 0.8984014 0.0
H H 0.2969 0.5992 0.9471 0.0
C C 0.320829 0.63603 0.8397414000000001 0.0
H H 0.3495 0.6888 0.8683000000000001 0.0
C C 0.277909 0.74012 0.8102514000000001 0.0
H H 0.281 0.7737 0.7565 0.0
C C 0.206069 0.52913 0.9182315 0.0
C C 0.323431 0.40183 0.9230214999999999 0.0
C C 0.335529 0.55643 0.7676514999999999 0.0
C C 0.277699 0.87113 0.8661814999999999 0.0
C C 0.1069511 0.55683 0.7488817999999999 0.0
H H 0.1314 0.4938 0.7731 0.0
C C 0.0669112 0.50003 0.6975419 0.0
H H 0.065 0.4012 0.6882 0.0
C C 0.029581 0.59063 0.6598317 0.0
C C 0.0357312 0.73673 0.67642 0.0
H H 0.0125 0.8029 0.6517999999999999 0.0
C C 0.0765912 0.78363 0.7296199999999999 0.0
H H 0.0793 0.8816 0.7412 0.0
C C -0.0735111 0.35043 0.5572219 0.0
H H -0.0839 0.2552 0.56 0.0
C C -0.0312712 0.39463 0.60802 0.0
H H -0.0139 0.33 0.6442 0.0
C C -0.014851 0.53663 0.6046516 0.0
C C -0.0418411 0.62603 0.5489318 0.0
H H -0.0318 0.721 0.544 0.0
C C -0.0840411 0.57413 0.5002918 0.0
H H -0.1019 0.6363 0.4633 0.0
Zn Zn 0.3269039 1.297253 -0.34232817 0.0
Zn Zn 0.32763289 0.8936930000000001 -0.54948817 0.0
O O 0.267204 1.1575118 -0.306891 0.0
O O 0.322163 1.1335199999999999 -0.4249112 0.0
O O 0.292053 0.91482 -0.4583412 0.0
O O 0.197982 0.7836219 -0.4008412 0.0
O O 0.134772 0.9119200000000001 -0.4662013 0.0
O O 0.18179299999999998 0.93312 -0.2525511 0.0
O O 0.13632100000000003 1.1234199999999999 -0.2285813 0.0
O O 0.18256299999999998 1.4448119 -0.3742912 0.0
O O 0.259313 1.39402 -0.3987012 0.0
N N 0.387681 1.1958199999999999 -0.2653814 0.0
N N 0.600198 0.93872 -0.0041314 0.0
C C 0.257961 1.0320200000000002 -0.3581014 0.0
H H 0.2625 0.9445 -0.3254 0.0
C C 0.20344099999999998 1.04213 -0.3984014 0.0
H H 0.2031 1.0992 -0.4471 0.0
C C 0.17917100000000002 1.1360299999999999 -0.3397414 0.0
H H 0.15050000000000002 1.1888 -0.3683 0.0
C C 0.22209099999999998 1.2401200000000001 -0.3102514 0.0
H H 0.21899999999999997 1.2737 -0.2565 0.0
C C 0.293931 1.0291299999999999 -0.4182315 0.0
C C 0.17656899999999998 0.90183 -0.4230215 0.0
C C 0.16447099999999998 1.05643 -0.2676515 0.0
C C 0.22230100000000003 1.37113 -0.3661815 0.0
C C 0.39304890000000003 1.0568300000000002 -0.2488818 0.0
H H 0.36860000000000004 0.9938 -0.2731 0.0
C C 0.4330888 1.00003 -0.1975419 0.0
H H 0.435 0.9012 -0.1882 0.0
C C 0.470419 1.09063 -0.1598317 0.0
C C 0.4642688 1.23673 -0.17642 0.0
H H 0.4875 1.3029 -0.1518 0.0
C C 0.42340880000000003 1.28363 -0.22962 0.0
H H 0.4207 1.3816000000000002 -0.2412 0.0
C C 0.5735110999999999 0.85043 -0.0572219 0.0
H H 0.5839 0.7552 -0.06 0.0
C C 0.5312711999999999 0.89463 -0.10802 0.0
H H 0.5139 0.8300000000000001 -0.1442 0.0
C C 0.514851 1.0366300000000002 -0.1046516 0.0
C C 0.5418411 1.12603 -0.0489318 0.0
H H 0.5318 1.221 -0.044 0.0
C C 0.5840411 1.07413 -0.0002918 0.0
H H 0.6019 1.1362999999999999 0.0367 0.0
Zn Zn 0.6730961 1.297253 0.84232817 0.0
Zn Zn 0.6723671099999999 0.8936930000000001 1.04948817 0.0
O O 0.732796 1.1575118 0.806891 0.0
O O 0.677837 1.1335199999999999 0.9249111999999999 0.0
O O 0.707947 0.91482 0.9583412 0.0
O O 0.802018 0.7836219 0.9008412 0.0
O O 0.865228 0.9119200000000001 0.9662013 0.0
O O 0.818207 0.93312 0.7525511 0.0
O O 0.863679 1.1234199999999999 0.7285813 0.0
O O 0.817437 1.4448119 0.8742912 0.0
O O 0.740687 1.39402 0.8987012 0.0
N N 0.6123190000000001 1.1958199999999999 0.7653814 0.0
N N 0.399802 0.93872 0.5041314 0.0
C C 0.742039 1.0320200000000002 0.8581014 0.0
H H 0.7375 0.9445 0.8254 0.0
C C 0.796559 1.04213 0.8984014 0.0
H H 0.7968999999999999 1.0992 0.9471 0.0
C C 0.820829 1.1360299999999999 0.8397414000000001 0.0
H H 0.8494999999999999 1.1888 0.8683000000000001 0.0
C C 0.777909 1.2401200000000001 0.8102514000000001 0.0
H H 0.781 1.2737 0.7565 0.0
C C 0.7060690000000001 1.0291299999999999 0.9182315 0.0
C C 0.823431 0.90183 0.9230214999999999 0.0
C C 0.835529 1.05643 0.7676514999999999 0.0
C C 0.7776989999999999 1.37113 0.8661814999999999 0.0
C C 0.6069511 1.0568300000000002 0.7488817999999999 0.0
H H 0.6314 0.9938 0.7731 0.0
C C 0.5669112000000001 1.00003 0.6975419 0.0
H H 0.565 0.9012 0.6882 0.0
C C 0.529581 1.09063 0.6598317 0.0
C C 0.5357312 1.23673 0.67642 0.0
H H 0.5125 1.3029 0.6517999999999999 0.0
C C 0.5765912 1.28363 0.7296199999999999 0.0
H H 0.5793 1.3816000000000002 0.7412 0.0
C C 0.4264889 0.85043 0.5572219 0.0
H H 0.4161 0.7552 0.56 0.0
C C 0.4687288 0.89463 0.60802 0.0
H H 0.4861 0.8300000000000001 0.6442 0.0
C C 0.485149 1.0366300000000002 0.6046516 0.0
C C 0.4581589 1.12603 0.5489318 0.0
H H 0.4682 1.221 0.544 0.0
C C 0.4159589 1.07413 0.5002918 0.0
H H 0.3981 1.1362999999999999 0.4633 0.0
Zn Zn 0.1730961 -0.797253 0.34232817 0.0
Zn Zn 0.17236711 -0.393693 0.54948817 0.0
O O 0.232796 -0.6575118 0.306891 0.0
O O 0.177837 -0.63352 0.4249112 0.0
O O 0.207947 -0.41482 0.4583412 0.0
O O 0.302018 -0.2836219 0.4008412 0.0
O O 0.365228 -0.41192 0.4662013 0.0
O O 0.318207 -0.43312 0.2525511 0.0
O O 0.363679 -0.62342 0.2285813 0.0
O O 0.317437 -0.9448119 0.3742912 0.0
O O 0.240687 -0.89402 0.3987012 0.0
N N 0.112319 -0.69582 0.2653814 0.0
N N -0.100198 -0.43872 0.0041314 0.0
C C 0.242039 -0.53202 0.3581014 0.0
H H 0.2375 -0.4445 0.3254 0.0
C C 0.296559 -0.54213 0.3984014 0.0
H H 0.2969 -0.5992 0.4471 0.0
C C 0.320829 -0.63603 0.3397414 0.0
H H 0.3495 -0.6888 0.3683 0.0
C C 0.277909 -0.74012 0.3102514 0.0
H H 0.281 -0.7737 0.2565 0.0
C C 0.206069 -0.52913 0.4182315 0.0
C C 0.323431 -0.40183 0.4230215 0.0
C C 0.335529 -0.55643 0.2676515 0.0
C C 0.277699 -0.87113 0.3661815 0.0
C C 0.1069511 -0.55683 0.2488818 0.0
H H 0.1314 -0.4938 0.2731 0.0
C C 0.0669112 -0.50003 0.1975419 0.0
H H 0.065 -0.4012 0.1882 0.0
C C 0.029581 -0.59063 0.1598317 0.0
C C 0.0357312 -0.73673 0.17642 0.0
H H 0.0125 -0.8029 0.1518 0.0
C C 0.0765912 -0.78363 0.22962 0.0
H H 0.0793 -0.8816 0.2412 0.0
C C -0.0735111 -0.35043 0.0572219 0.0
H H -0.0839 -0.2552 0.06 0.0
C C -0.0312712 -0.39463 0.10802 0.0
H H -0.0139 -0.33 0.1442 0.0
C C -0.014851 -0.53663 0.1046516 0.0
C C -0.0418411 -0.62603 0.0489318 0.0
H H -0.0318 -0.721 0.044 0.0
C C -0.0840411 -0.57413 0.0002918 0.0
H H -0.1019 -0.6363 -0.0367 0.0
Zn Zn -0.1730961 -0.797253 -0.84232817 0.0
Zn Zn -0.17236711 -0.393693 -1.04948817 0.0
O O -0.232796 -0.6575118 -0.806891 0.0
O O -0.177837 -0.63352 -0.9249111999999999 0.0
O O -0.207947 -0.41482 -0.9583412 0.0
O O -0.302018 -0.2836219 -0.9008412 0.0
O O -0.365228 -0.41192 -0.9662013 0.0
O O -0.318207 -0.43312 -0.7525511 0.0
O O -0.363679 -0.62342 -0.7285813 0.0
O O -0.317437 -0.9448119 -0.8742912 0.0
O O -0.240687 -0.89402 -0.8987012 0.0
N N -0.112319 -0.69582 -0.7653814 0.0
N N 0.100198 -0.43872 -0.5041314 0.0
C C -0.242039 -0.53202 -0.8581014 0.0
H H -0.2375 -0.4445 -0.8254 0.0
C C -0.296559 -0.54213 -0.8984014 0.0
H H -0.2969 -0.5992 -0.9471 0.0
C C -0.320829 -0.63603 -0.8397414000000001 0.0
H H -0.3495 -0.6888 -0.8683000000000001 0.0
C C -0.277909 -0.74012 -0.8102514000000001 0.0
H H -0.281 -0.7737 -0.7565 0.0
C C -0.206069 -0.52913 -0.9182315 0.0
C C -0.323431 -0.40183 -0.9230214999999999 0.0
C C -0.335529 -0.55643 -0.7676514999999999 0.0
C C -0.277699 -0.87113 -0.8661814999999999 0.0
C C -0.1069511 -0.55683 -0.7488817999999999 0.0
H H -0.1314 -0.4938 -0.7731 0.0
C C -0.0669112 -0.50003 -0.6975419 0.0
H H -0.065 -0.4012 -0.6882 0.0
C C -0.029581 -0.59063 -0.6598317 0.0
C C -0.0357312 -0.73673 -0.67642 0.0
H H -0.0125 -0.8029 -0.6517999999999999 0.0
C C -0.0765912 -0.78363 -0.7296199999999999 0.0
H H -0.0793 -0.8816 -0.7412 0.0
C C 0.0735111 -0.35043 -0.5572219 0.0
H H 0.0839 -0.2552 -0.56 0.0
C C 0.0312712 -0.39463 -0.60802 0.0
H H 0.0139 -0.33 -0.6442 0.0
C C 0.014851 -0.53663 -0.6046516 0.0
C C 0.0418411 -0.62603 -0.5489318 0.0
H H 0.0318 -0.721 -0.544 0.0
C C 0.0840411 -0.57413 -0.5002918 0.0
H H 0.1019 -0.6363 -0.4633 0.0
Zn Zn 0.6730961 -0.297253 0.34232817 0.0
Zn Zn 0.6723671099999999 0.10630699999999998 0.54948817 0.0
O O 0.732796 -0.15751179999999998 0.306891 0.0
O O 0.677837 -0.13351999999999997 0.4249112 0.0
O O 0.707947 0.08517999999999998 0.4583412 0.0
O O 0.802018 0.21637810000000002 0.4008412 0.0
O O 0.865228 0.08807999999999999 0.4662013 0.0
O O 0.818207 0.06688 0.2525511 0.0
O O 0.863679 -0.12341999999999997 0.2285813 0.0
O O 0.817437 -0.44481190000000004 0.3742912 0.0
O O 0.740687 -0.39402000000000004 0.3987012 0.0
N N 0.6123190000000001 -0.19582 0.2653814 0.0
N N 0.399802 0.06128 0.0041314 0.0
C C 0.742039 -0.03202000000000005 0.3581014 0.0
H H 0.7375 0.055499999999999994 0.3254 0.0
C C 0.796559 -0.04213 0.3984014 0.0
H H 0.7968999999999999 -0.09919999999999995 0.4471 0.0
C C 0.820829 -0.13602999999999998 0.3397414 0.0
H H 0.8494999999999999 -0.18879999999999997 0.3683 0.0
C C 0.777909 -0.24012 0.3102514 0.0
H H 0.781 -0.27370000000000005 0.2565 0.0
C C 0.7060690000000001 -0.02912999999999999 0.4182315 0.0
C C 0.823431 0.09816999999999998 0.4230215 0.0
C C 0.835529 -0.05642999999999998 0.2676515 0.0
C C 0.7776989999999999 -0.37112999999999996 0.3661815 0.0
C C 0.6069511 -0.05683000000000005 0.2488818 0.0
H H 0.6314 0.006199999999999983 0.2731 0.0
C C 0.5669112000000001 -2.999999999997449e-05 0.1975419 0.0
H H 0.565 0.0988 0.1882 0.0
C C 0.529581 -0.09062999999999999 0.1598317 0.0
C C 0.5357312 -0.23673 0.17642 0.0
H H 0.5125 -0.30289999999999995 0.1518 0.0
C C 0.5765912 -0.28363000000000005 0.22962 0.0
H H 0.5793 -0.38160000000000005 0.2412 0.0
C C 0.4264889 0.14956999999999998 0.0572219 0.0
H H 0.4161 0.24480000000000002 0.06 0.0
C C 0.4687288 0.10537000000000002 0.10802 0.0
H H 0.4861 0.16999999999999998 0.1442 0.0
C C 0.485149 -0.03663000000000005 0.1046516 0.0
C C 0.4581589 -0.12602999999999998 0.0489318 0.0
H H 0.4682 -0.22099999999999997 0.044 0.0
C C 0.4159589 -0.07413000000000003 0.0002918 0.0
H H 0.3981 -0.13629999999999998 -0.0367 0.0
Zn Zn 0.3269039 -0.297253 -0.84232817 0.0
Zn Zn 0.32763289 0.10630699999999998 -1.04948817 0.0
O O 0.267204 -0.15751179999999998 -0.806891 0.0
O O 0.322163 -0.13351999999999997 -0.9249111999999999 0.0
O O 0.292053 0.08517999999999998 -0.9583412 0.0
O O 0.197982 0.21637810000000002 -0.9008412 0.0
O O 0.134772 0.08807999999999999 -0.9662013 0.0
O O 0.18179299999999998 0.06688 -0.7525511 0.0
O O 0.13632100000000003 -0.12341999999999997 -0.7285813 0.0
O O 0.18256299999999998 -0.44481190000000004 -0.8742912 0.0
O O 0.259313 -0.39402000000000004 -0.8987012 0.0
N N 0.387681 -0.19582 -0.7653814 0.0
N N 0.600198 0.06128 -0.5041314 0.0
C C 0.257961 -0.03202000000000005 -0.8581014 0.0
H H 0.2625 0.055499999999999994 -0.8254 0.0
C C 0.20344099999999998 -0.04213 -0.8984014 0.0
H H 0.2031 -0.09919999999999995 -0.9471 0.0
C C 0.17917100000000002 -0.13602999999999998 -0.8397414000000001 0.0
H H 0.15050000000000002 -0.18879999999999997 -0.8683000000000001 0.0
C C 0.22209099999999998 -0.24012 -0.8102514000000001 0.0
H H 0.21899999999999997 -0.27370000000000005 -0.7565 0.0
C C 0.293931 -0.02912999999999999 -0.9182315 0.0
C C 0.17656899999999998 0.09816999999999998 -0.9230214999999999 0.0
C C 0.16447099999999998 -0.05642999999999998 -0.7676514999999999 0.0
C C 0.22230100000000003 -0.37112999999999996 -0.8661814999999999 0.0
C C 0.39304890000000003 -0.05683000000000005 -0.7488817999999999 0.0
H H 0.36860000000000004 0.006199999999999983 -0.7731 0.0
C C 0.4330888 -2.999999999997449e-05 -0.6975419 0.0
H H 0.435 0.0988 -0.6882 0.0
C C 0.470419 -0.09062999999999999 -0.6598317 0.0
C C 0.4642688 -0.23673 -0.67642 0.0
H H 0.4875 -0.30289999999999995 -0.6517999999999999 0.0
C C 0.42340880000000003 -0.28363000000000005 -0.7296199999999999 0.0
H H 0.4207 -0.38160000000000005 -0.7412 0.0
C C 0.5735110999999999 0.14956999999999998 -0.5572219 0.0
H H 0.5839 0.24480000000000002 -0.56 0.0
C C 0.5312711999999999 0.10537000000000002 -0.60802 0.0
H H 0.5139 0.16999999999999998 -0.6442 0.0
C C 0.514851 -0.03663000000000005 -0.6046516 0.0
C C 0.5418411 -0.12602999999999998 -0.5489318 0.0
H H 0.5318 -0.22099999999999997 -0.544 0.0
C C 0.5840411 -0.07413000000000003 -0.5002918 0.0
H H 0.6019 -0.13629999999999998 -0.4633 0.0
_cell_length_a 27.1013
_cell_length_b 9.27321
_cell_length_c 16.979215
_cell_angle_alpha 90.0
_cell_angle_beta 99.1565
_cell_angle_gamma 90.0
_symmetry_space_group_name_H-M         'P 1'
_symmetry_Int_Tables_number            1
loop_
_symmetry_equiv_pos_as_xyz
   'x, y, z'
                         
loop_
_atom_site_label
_atom_site_type_symbol
_atom_site_fract_x 
_atom_site_fract_y
_atom_site_fract_z
_atom_site_charge
Zn Zn -0.1730961 0.797253 -0.34232817 0.0
Zn Zn -0.17236711 0.393693 -0.54948817 0.0
O O -0.232796 0.6575118 -0.306891 0.0
O O -0.177837 0.63352 -0.4249112 0.0
O O -0.207947 0.41482 -0.4583412 0.0
O O -0.302018 0.2836219 -0.4008412 0.0
O O -0.365228 0.41192 -0.4662013 0.0
O O -0.318207 0.43312 -0.2525511 0.0
O O -0.363679 0.62342 -0.2285813 0.0
O O -0.317437 0.9448119 -0.3742912 0.0
O O -0.240687 0.89402 -0.3987012 0.0
N N -0.112319 0.69582 -0.2653814 0.0
N N 0.100198 0.43872 -0.0041314 0.0
C C -0.242039 0.53202 -0.3581014 0.0
H H -0.2375 0.4445 -0.3254 0.0
C C -0.296559 0.54213 -0.3984014 0.0
H H -0.2969 0.5992 -0.4471 0.0
C C -0.320829 0.63603 -0.3397414 0.0
H H -0.3495 0.6888 -0.3683 0.0
C C -0.277909 0.74012 -0.3102514 0.0
H H -0.281 0.7737 -0.2565 0.0
C C -0.206069 0.52913 -0.4182315 0.0
C C -0.323431 0.40183 -0.4230215 0.0
C C -0.335529 0.55643 -0.2676515 0.0
C C -0.277699 0.87113 -0.3661815 0.0
C C -0.1069511 0.55683 -0.2488818 0.0
H H -0.1314 0.4938 -0.2731 0.0
C C -0.0669112 0.50003 -0.1975419 0.0
H H -0.065 0.4012 -0.1882 0.0
C C -0.029581 0.59063 -0.1598317 0.0
C C -0.0357312 0.73673 -0.17642 0.0
H H -0.0125 0.8029 -0.1518 0.0
C C -0.0765912 0.78363 -0.22962 0.0
H H -0.0793 0.8816 -0.2412 0.0
C C 0.0735111 0.35043 -0.0572219 0.0
H H 0.0839 0.2552 -0.06 0.0
C C 0.0312712 0.39463 -0.10802 0.0
H H 0.0139 0.33 -0.1442 0.0
C C 0.014851 0.53663 -0.1046516 0.0
C C 0.0418411 0.62603 -0.0489318 0.0
H H 0.0318 0.721 -0.044 0.0
C C 0.0840411 0.57413 -0.0002918 0.0
H H 0.1019 0.6363 0.0367 0.0
Zn Zn 0.1730961 0.797253 0.84232817 0.0
Zn Zn 0.17236711 0.393693 1.04948817 0.0
O O 0.232796 0.6575118 0.806891 0.0
O O 0.177837 0.63352 0.9249111999999999 0.0
O O 0.207947 0.41482 0.9583412 0.0
O O 0.302018 0.2836219 0.9008412 0.0
O O 0.365228 0.41192 0.9662013 0.0
O O 0.318207 0.43312 0.7525511 0.0
O O 0.363679 0.62342 0.7285813 0.0
O O 0.317437 0.9448119 0.8742912 0.0
O O 0.240687 0.89402 0.8987012 0.0
N N 0.112319 0.69582 0.7653814 0.0
N N -0.100198 0.43872 0.5041314 0.0
C C 0.242039 0.53202 0.8581014 0.0
H H 0.2375 0.4445 0.8254 0.0
C C 0.296559 0.54213 0.8984014 0.0
H H 0.2969 0.5992 0.9471 0.0
C C 0.320829 0.63603 0.8397414000000001 0.0
H H 0.3495 0.6888 0.8683000000000001 0.0
C C 0.277909 0.74012 0.8102514000000001 0.0
H H 0.281 0.7737 0.7565 0.0
C C 0.206069 0.52913 0.9182315 0.0
C C 0.323431 0.40183 0.9230214999999999 0.0
C C 0.335529 0.55643 0.7676514999999999 0.0
C C 0.277699 0.87113 0.8661814999999999 0.0
C C 0.1069511 0.55683 0.7488817999999999 0.0
H H 0.1314 0.4938 0.7731 0.0
C C 0.0669112 0.50003 0.6975419 0.0
H H 0.065 0.4012 0.6882 0.0
C C 0.029581 0.59063 0.6598317 0.0
C C 0.0357312 0.73673 0.67642 0.0
H H 0.0125 0.8029 0.6517999999999999 0.0
C C 0.0765912 0.78363 0.7296199999999999 0.0
H H 0.0793 0.8816 0.7412 0.0
C C -0.0735111 0.35043 0.5572219 0.0
H H -0.0839 0.2552 0.56 0.0
C C -0.0312712 0.39463 0.60802 0.0
H H -0.0139 0.33 0.6442 0.0
C C -0.014851 0.53663 0.6046516 0.0
C C -0.0418411 0.62603 0.5489318 0.0
H H -0.0318 0.721 0.544 0.0
C C -0.0840411 0.57413 0.5002918 0.0
H H -0.1019 0.6363 0.4633 0.0
Zn Zn 0.3269039 1.297253 -0.34232817 0.0
Zn Zn 0.32763289 0.8936930000000001 -0.54948817 0.0
O O 0.267204 1.1575118 -0.306891 0.0
O O 0.322163 1.1335199999999999 -0.4249112 0.0
O O 0.292053 0.91482 -0.4583412 0.0
O O 0.197982 0.7836219 -0.4008412 0.0
O O 0.134772 0.9119200000000001 -0.4662013 0.0
O O 0.18179299999999998 0.93312 -0.2525511 0.0
O O 0.13632100000000003 1.1234199999999999 -0.2285813 0.0
O O 0.18256299999999998 1.4448119 -0.3742912 0.0
O O 0.259313 1.39402 -0.3987012 0.0
N N 0.387681 1.1958199999999999 -0.2653814 0.0
N N 0.600198 0.93872 -0.0041314 0.0
C C 0.257961 1.0320200000000002 -0.3581014 0.0
H H 0.2625 0.9445 -0.3254 0.0
C C 0.20344099999999998 1.04213 -0.3984014 0.0
H H 0.2031 1.0992 -0.4471 0.0
C C 0.17917100000000002 1.1360299999999999 -0.3397414 0.0
H H 0.15050000000000002 1.1888 -0.3683 0.0
C C 0.22209099999999998 1.2401200000000001 -0.3102514 0.0
H H 0.21899999999999997 1.2737 -0.2565 0.0
C C 0.293931 1.0291299999999999 -0.4182315 0.0
C C 0.17656899999999998 0.90183 -0.4230215 0.0
C C 0.16447099999999998 1.05643 -0.2676515 0.0
C C 0.22230100000000003 1.37113 -0.3661815 0.0
C C 0.39304890000000003 1.0568300000000002 -0.2488818 0.0
H H 0.36860000000000004 0.9938 -0.2731 0.0
C C 0.4330888 1.00003 -0.1975419 0.0
H H 0.435 0.9012 -0.1882 0.0
C C 0.470419 1.09063 -0.1598317 0.0
C C 0.4642688 1.23673 -0.17642 0.0
H H 0.4875 1.3029 -0.1518 0.0
C C 0.42340880000000003 1.28363 -0.22962 0.0
H H 0.4207 1.3816000000000002 -0.2412 0.0
C C 0.5735110999999999 0.85043 -0.0572219 0.0
H H 0.5839 0.7552 -0.06 0.0
C C 0.5312711999999999 0.89463 -0.10802 0.0
H H 0.5139 0.8300000000000001 -0.1442 0.0
C C 0.514851 1.0366300000000002 -0.1046516 0.0
C C 0.5418411 1.12603 -0.0489318 0.0
H H 0.5318 1.221 -0.044 0.0
C C 0.5840411 1.07413 -0.0002918 0.0
H H 0.6019 1.1362999999999999 0.0367 0.0
Zn Zn 0.6730961 1.297253 0.84232817 0.0
Zn Zn 0.6723671099999999 0.8936930000000001 1.04948817 0.0
O O 0.732796 1.1575118 0.806891 0.0
O O 0.677837 1.1335199999999999 0.9249111999999999 0.0
O O 0.707947 0.91482 0.9583412 0.0
O O 0.802018 0.7836219 0.9008412 0.0
O O 0.865228 0.9119200000000001 0.9662013 0.0
O O 0.818207 0.93312 0.7525511 0.0
O O 0.863679 1.1234199999999999 0.7285813 0.0
O O 0.817437 1.4448119 0.8742912 0.0
O O 0.740687 1.39402 0.8987012 0.0
N N 0.6123190000000001 1.1958199999999999 0.7653814 0.0
N N 0.399802 0.93872 0.5041314 0.0
C C 0.742039 1.0320200000000002 0.8581014 0.0
H H 0.7375 0.9445 0.8254 0.0
C C 0.796559 1.04213 0.8984014 0.0
H H 0.7968999999999999 1.0992 0.9471 0.0
C C 0.820829 1.1360299999999999 0.8397414000000001 0.0
H H 0.8494999999999999 1.1888 0.8683000000000001 0.0
C C 0.777909 1.2401200000000001 0.8102514000000001 0.0
H H 0.781 1.2737 0.7565 0.0
C C 0.7060690000000001 1.0291299999999999 0.9182315 0.0
C C 0.823431 0.90183 0.9230214999999999 0.0
C C 0.835529 1.05643 0.7676514999999999 0.0
C C 0.7776989999999999 1.37113 0.8661814999999999 0.0
C C 0.6069511 1.0568300000000002 0.7488817999999999 0.0
H H 0.6314 0.9938 0.7731 0.0
C C 0.5669112000000001 1.00003 0.6975419 0.0
H H 0.565 0.9012 0.6882 0.0
C C 0.529581 1.09063 0.6598317 0.0
C C 0.5357312 1.23673 0.67642 0.0
H H 0.5125 1.3029 0.6517999999999999 0.0
C C 0.5765912 1.28363 0.7296199999999999 0.0
H H 0.5793 1.3816000000000002 0.7412 0.0
C C 0.4264889 0.85043 0.5572219 0.0
H H 0.4161 0.7552 0.56 0.0
C C 0.4687288 0.89463 0.60802 0.0
H H 0.4861 0.8300000000000001 0.6442 0.0
C C 0.485149 1.0366300000000002 0.6046516 0.0
C C 0.4581589 1.12603 0.5489318 0.0
H H 0.4682 1.221 0.544 0.0
C C 0.4159589 1.07413 0.5002918 0.0
H H 0.3981 1.1362999999999999 0.4633 0.0
Zn Zn 0.1730961 -0.797253 0.34232817 0.0
Zn Zn 0.17236711 -0.393693 0.54948817 0.0
O O 0.232796 -0.6575118 0.306891 0.0
O O 0.177837 -0.63352 0.4249112 0.0
O O 0.207947 -0.41482 0.4583412 0.0
O O 0.302018 -0.2836219 0.4008412 0.0
O O 0.365228 -0.41192 0.4662013 0.0
O O 0.318207 -0.43312 0.2525511 0.0
O O 0.363679 -0.62342 0.2285813 0.0
O O 0.317437 -0.9448119 0.3742912 0.0
O O 0.240687 -0.89402 0.3987012 0.0
N N 0.112319 -0.69582 0.2653814 0.0
N N -0.100198 -0.43872 0.0041314 0.0
C C 0.242039 -0.53202 0.3581014 0.0
H H 0.2375 -0.4445 0.3254 0.0
C C 0.296559 -0.54213 0.3984014 0.0
H H 0.2969 -0.5992 0.4471 0.0
C C 0.320829 -0.63603 0.3397414 0.0
H H 0.3495 -0.6888 0.3683 0.0
C C 0.277909 -0.74012 0.3102514 0.0
H H 0.281 -0.7737 0.2565 0.0
C C 0.206069 -0.52913 0.4182315 0.0
C C 0.323431 -0.40183 0.4230215 0.0
C C 0.335529 -0.55643 0.2676515 0.0
C C 0.277699 -0.87113 0.3661815 0.0
C C 0.1069511 -0.55683 0.2488818 0.0
H H 0.1314 -0.4938 0.2731 0.0
C C 0.0669112 -0.50003 0.1975419 0.0
H H 0.065 -0.4012 0.1882 0.0
C C 0.029581 -0.59063 0.1598317 0.0
C C 0.0357312 -0.73673 0.17642 0.0
H H 0.0125 -0.8029 0.1518 0.0
C C 0.0765912 -0.78363 0.22962 0.0
H H 0.0793 -0.8816 0.2412 0.0
C C -0.0735111 -0.35043 0.0572219 0.0
H H -0.0839 -0.2552 0.06 0.0
C C -0.0312712 -0.39463 0.10802 0.0
H H -0.0139 -0.33 0.1442 0.0
C C -0.014851 -0.53663 0.1046516 0.0
C C -0.0418411 -0.62603 0.0489318 0.0
H H -0.0318 -0.721 0.044 0.0
C C -0.0840411 -0.57413 0.0002918 0.0
H H -0.1019 -0.6363 -0.0367 0.0
Zn Zn -0.1730961 -0.797253 -0.84232817 0.0
Zn Zn -0.17236711 -0.393693 -1.04948817 0.0
O O -0.232796 -0.6575118 -0.806891 0.0
O O -0.177837 -0.63352 -0.9249111999999999 0.0
O O -0.207947 -0.41482 -0.9583412 0.0
O O -0.302018 -0.2836219 -0.9008412 0.0
O O -0.365228 -0.41192 -0.9662013 0.0
O O -0.318207 -0.43312 -0.7525511 0.0
O O -0.363679 -0.62342 -0.7285813 0.0
O O -0.317437 -0.9448119 -0.8742912 0.0
O O -0.240687 -0.89402 -0.8987012 0.0
N N -0.112319 -0.69582 -0.7653814 0.0
N N 0.100198 -0.43872 -0.5041314 0.0
C C -0.242039 -0.53202 -0.8581014 0.0
H H -0.2375 -0.4445 -0.8254 0.0
C C -0.296559 -0.54213 -0.8984014 0.0
H H -0.2969 -0.5992 -0.9471 0.0
C C -0.320829 -0.63603 -0.8397414000000001 0.0
H H -0.3495 -0.6888 -0.8683000000000001 0.0
C C -0.277909 -0.74012 -0.8102514000000001 0.0
H H -0.281 -0.7737 -0.7565 0.0
C C -0.206069 -0.52913 -0.9182315 0.0
C C -0.323431 -0.40183 -0.9230214999999999 0.0
C C -0.335529 -0.55643 -0.7676514999999999 0.0
C C -0.277699 -0.87113 -0.8661814999999999 0.0
C C -0.1069511 -0.55683 -0.7488817999999999 0.0
H H -0.1314 -0.4938 -0.7731 0.0
C C -0.0669112 -0.50003 -0.6975419 0.0
H H -0.065 -0.4012 -0.6882 0.0
C C -0.029581 -0.59063 -0.6598317 0.0
C C -0.0357312 -0.73673 -0.67642 0.0
H H -0.0125 -0.8029 -0.6517999999999999 0.0
C C -0.0765912 -0.78363 -0.7296199999999999 0.0
H H -0.0793 -0.8816 -0.7412 0.0
C C 0.0735111 -0.35043 -0.5572219 0.0
H H 0.0839 -0.2552 -0.56 0.0
C C 0.0312712 -0.39463 -0.60802 0.0
H H 0.0139 -0.33 -0.6442 0.0
C C 0.014851 -0.53663 -0.6046516 0.0
C C 0.0418411 -0.62603 -0.5489318 0.0
H H 0.0318 -0.721 -0.544 0.0
C C 0.0840411 -0.57413 -0.5002918 0.0
H H 0.1019 -0.6363 -0.4633 0.0
Zn Zn 0.6730961 -0.297253 0.34232817 0.0
Zn Zn 0.6723671099999999 0.10630699999999998 0.54948817 0.0
O O 0.732796 -0.15751179999999998 0.306891 0.0
O O 0.677837 -0.13351999999999997 0.4249112 0.0
O O 0.707947 0.08517999999999998 0.4583412 0.0
O O 0.802018 0.21637810000000002 0.4008412 0.0
O O 0.865228 0.08807999999999999 0.4662013 0.0
O O 0.818207 0.06688 0.2525511 0.0
O O 0.863679 -0.12341999999999997 0.2285813 0.0
O O 0.817437 -0.44481190000000004 0.3742912 0.0
O O 0.740687 -0.39402000000000004 0.3987012 0.0
N N 0.6123190000000001 -0.19582 0.2653814 0.0
N N 0.399802 0.06128 0.0041314 0.0
C C 0.742039 -0.03202000000000005 0.3581014 0.0
H H 0.7375 0.055499999999999994 0.3254 0.0
C C 0.796559 -0.04213 0.3984014 0.0
H H 0.7968999999999999 -0.09919999999999995 0.4471 0.0
C C 0.820829 -0.13602999999999998 0.3397414 0.0
H H 0.8494999999999999 -0.18879999999999997 0.3683 0.0
C C 0.777909 -0.24012 0.3102514 0.0
H H 0.781 -0.27370000000000005 0.2565 0.0
C C 0.7060690000000001 -0.02912999999999999 0.4182315 0.0
C C 0.823431 0.09816999999999998 0.4230215 0.0
C C 0.835529 -0.05642999999999998 0.2676515 0.0
C C 0.7776989999999999 -0.37112999999999996 0.3661815 0.0
C C 0.6069511 -0.05683000000000005 0.2488818 0.0
H H 0.6314 0.006199999999999983 0.2731 0.0
C C 0.5669112000000001 -2.999999999997449e-05 0.1975419 0.0
H H 0.565 0.0988 0.1882 0.0
C C 0.529581 -0.09062999999999999 0.1598317 0.0
C C 0.5357312 -0.23673 0.17642 0.0
H H 0.5125 -0.30289999999999995 0.1518 0.0
C C 0.5765912 -0.28363000000000005 0.22962 0.0
H H 0.5793 -0.38160000000000005 0.2412 0.0
C C 0.4264889 0.14956999999999998 0.0572219 0.0
H H 0.4161 0.24480000000000002 0.06 0.0
C C 0.4687288 0.10537000000000002 0.10802 0.0
H H 0.4861 0.16999999999999998 0.1442 0.0
C C 0.485149 -0.03663000000000005 0.1046516 0.0
C C 0.4581589 -0.12602999999999998 0.0489318 0.0
H H 0.4682 -0.22099999999999997 0.044 0.0
C C 0.4159589 -0.07413000000000003 0.0002918 0.0
H H 0.3981 -0.13629999999999998 -0.0367 0.0
Zn Zn 0.3269039 -0.297253 -0.84232817 0.0
Zn Zn 0.32763289 0.10630699999999998 -1.04948817 0.0
O O 0.267204 -0.15751179999999998 -0.806891 0.0
O O 0.322163 -0.13351999999999997 -0.9249111999999999 0.0
O O 0.292053 0.08517999999999998 -0.9583412 0.0
O O 0.197982 0.21637810000000002 -0.9008412 0.0
O O 0.134772 0.08807999999999999 -0.9662013 0.0
O O 0.18179299999999998 0.06688 -0.7525511 0.0
O O 0.13632100000000003 -0.12341999999999997 -0.7285813 0.0
O O 0.18256299999999998 -0.44481190000000004 -0.8742912 0.0
O O 0.259313 -0.39402000000000004 -0.8987012 0.0
N N 0.387681 -0.19582 -0.7653814 0.0
N N 0.600198 0.06128 -0.5041314 0.0
C C 0.257961 -0.03202000000000005 -0.8581014 0.0
H H 0.2625 0.055499999999999994 -0.8254 0.0
C C 0.20344099999999998 -0.04213 -0.8984014 0.0
H H 0.2031 -0.09919999999999995 -0.9471 0.0
C C 0.17917100000000002 -0.13602999999999998 -0.8397414000000001 0.0
H H 0.15050000000000002 -0.18879999999999997 -0.8683000000000001 0.0
C C 0.22209099999999998 -0.24012 -0.8102514000000001 0.0
H H 0.21899999999999997 -0.27370000000000005 -0.7565 0.0
C C 0.293931 -0.02912999999999999 -0.9182315 0.0
C C 0.17656899999999998 0.09816999999999998 -0.9230214999999999 0.0
C C 0.16447099999999998 -0.05642999999999998 -0.7676514999999999 0.0
C C 0.22230100000000003 -0.37112999999999996 -0.8661814999999999 0.0
C C 0.39304890000000003 -0.05683000000000005 -0.7488817999999999 0.0
H H 0.36860000000000004 0.006199999999999983 -0.7731 0.0
C C 0.4330888 -2.999999999997449e-05 -0.6975419 0.0
H H 0.435 0.0988 -0.6882 0.0
C C 0.470419 -0.09062999999999999 -0.6598317 0.0
C C 0.4642688 -0.23673 -0.67642 0.0
H H 0.4875 -0.30289999999999995 -0.6517999999999999 0.0
C C 0.42340880000000003 -0.28363000000000005 -0.7296199999999999 0.0
H H 0.4207 -0.38160000000000005 -0.7412 0.0
C C 0.5735110999999999 0.14956999999999998 -0.5572219 0.0
H H 0.5839 0.24480000000000002 -0.56 0.0
C C 0.5312711999999999 0.10537000000000002 -0.60802 0.0
H H 0.5139 0.16999999999999998 -0.6442 0.0
C C 0.514851 -0.03663000000000005 -0.6046516 0.0
C C 0.5418411 -0.12602999999999998 -0.5489318 0.0
H H 0.5318 -0.22099999999999997 -0.544 0.0
C C 0.5840411 -0.07413000000000003 -0.5002918 0.0
H H 0.6019 -0.13629999999999998 -0.4633 0.0
_cell_length_a 27.1013
_cell_length_b 9.27321
_cell_length_c 16.979215
_cell_angle_alpha 90.0
_cell_angle_beta 99.1565
_cell_angle_gamma 90.0
_symmetry_space_group_name_H-M         'P 1'
_symmetry_Int_Tables_number            1
loop_
_symmetry_equiv_pos_as_xyz
   'x, y, z'
                         
loop_
_atom_site_label
_atom_site_type_symbol
_atom_site_fract_x 
_atom_site_fract_y
_atom_site_fract_z
_atom_site_charge
Zn Zn -0.1730961 0.797253 -0.34232817 0.0
Zn Zn -0.17236711 0.393693 -0.54948817 0.0
O O -0.232796 0.6575118 -0.306891 0.0
O O -0.177837 0.63352 -0.4249112 0.0
O O -0.207947 0.41482 -0.4583412 0.0
O O -0.302018 0.2836219 -0.4008412 0.0
O O -0.365228 0.41192 -0.4662013 0.0
O O -0.318207 0.43312 -0.2525511 0.0
O O -0.363679 0.62342 -0.2285813 0.0
O O -0.317437 0.9448119 -0.3742912 0.0
O O -0.240687 0.89402 -0.3987012 0.0
N N -0.112319 0.69582 -0.2653814 0.0
N N 0.100198 0.43872 -0.0041314 0.0
C C -0.242039 0.53202 -0.3581014 0.0
H H -0.2375 0.4445 -0.3254 0.0
C C -0.296559 0.54213 -0.3984014 0.0
H H -0.2969 0.5992 -0.4471 0.0
C C -0.320829 0.63603 -0.3397414 0.0
H H -0.3495 0.6888 -0.3683 0.0
C C -0.277909 0.74012 -0.3102514 0.0
H H -0.281 0.7737 -0.2565 0.0
C C -0.206069 0.52913 -0.4182315 0.0
C C -0.323431 0.40183 -0.4230215 0.0
C C -0.335529 0.55643 -0.2676515 0.0
C C -0.277699 0.87113 -0.3661815 0.0
C C -0.1069511 0.55683 -0.2488818 0.0
H H -0.1314 0.4938 -0.2731 0.0
C C -0.0669112 0.50003 -0.1975419 0.0
H H -0.065 0.4012 -0.1882 0.0
C C -0.029581 0.59063 -0.1598317 0.0
C C -0.0357312 0.73673 -0.17642 0.0
H H -0.0125 0.8029 -0.1518 0.0
C C -0.0765912 0.78363 -0.22962 0.0
H H -0.0793 0.8816 -0.2412 0.0
C C 0.0735111 0.35043 -0.0572219 0.0
H H 0.0839 0.2552 -0.06 0.0
C C 0.0312712 0.39463 -0.10802 0.0
H H 0.0139 0.33 -0.1442 0.0
C C 0.014851 0.53663 -0.1046516 0.0
C C 0.0418411 0.62603 -0.0489318 0.0
H H 0.0318 0.721 -0.044 0.0
C C 0.0840411 0.57413 -0.0002918 0.0
H H 0.1019 0.6363 0.0367 0.0
Zn Zn 0.1730961 0.797253 0.84232817 0.0
Zn Zn 0.17236711 0.393693 1.04948817 0.0
O O 0.232796 0.6575118 0.806891 0.0
O O 0.177837 0.63352 0.9249111999999999 0.0
O O 0.207947 0.41482 0.9583412 0.0
O O 0.302018 0.2836219 0.9008412 0.0
O O 0.365228 0.41192 0.9662013 0.0
O O 0.318207 0.43312 0.7525511 0.0
O O 0.363679 0.62342 0.7285813 0.0
O O 0.317437 0.9448119 0.8742912 0.0
O O 0.240687 0.89402 0.8987012 0.0
N N 0.112319 0.69582 0.7653814 0.0
N N -0.100198 0.43872 0.5041314 0.0
C C 0.242039 0.53202 0.8581014 0.0
H H 0.2375 0.4445 0.8254 0.0
C C 0.296559 0.54213 0.8984014 0.0
H H 0.2969 0.5992 0.9471 0.0
C C 0.320829 0.63603 0.8397414000000001 0.0
H H 0.3495 0.6888 0.8683000000000001 0.0
C C 0.277909 0.74012 0.8102514000000001 0.0
H H 0.281 0.7737 0.7565 0.0
C C 0.206069 0.52913 0.9182315 0.0
C C 0.323431 0.40183 0.9230214999999999 0.0
C C 0.335529 0.55643 0.7676514999999999 0.0
C C 0.277699 0.87113 0.8661814999999999 0.0
C C 0.1069511 0.55683 0.7488817999999999 0.0
H H 0.1314 0.4938 0.7731 0.0
C C 0.0669112 0.50003 0.6975419 0.0
H H 0.065 0.4012 0.6882 0.0
C C 0.029581 0.59063 0.6598317 0.0
C C 0.0357312 0.73673 0.67642 0.0
H H 0.0125 0.8029 0.6517999999999999 0.0
C C 0.0765912 0.78363 0.7296199999999999 0.0
H H 0.0793 0.8816 0.7412 0.0
C C -0.0735111 0.35043 0.5572219 0.0
H H -0.0839 0.2552 0.56 0.0
C C -0.0312712 0.39463 0.60802 0.0
H H -0.0139 0.33 0.6442 0.0
C C -0.014851 0.53663 0.6046516 0.0
C C -0.0418411 0.62603 0.5489318 0.0
H H -0.0318 0.721 0.544 0.0
C C -0.0840411 0.57413 0.5002918 0.0
H H -0.1019 0.6363 0.4633 0.0
Zn Zn 0.3269039 1.297253 -0.34232817 0.0
Zn Zn 0.32763289 0.8936930000000001 -0.54948817 0.0
O O 0.267204 1.1575118 -0.306891 0.0
O O 0.322163 1.1335199999999999 -0.4249112 0.0
O O 0.292053 0.91482 -0.4583412 0.0
O O 0.197982 0.7836219 -0.4008412 0.0
O O 0.134772 0.9119200000000001 -0.4662013 0.0
O O 0.18179299999999998 0.93312 -0.2525511 0.0
O O 0.13632100000000003 1.1234199999999999 -0.2285813 0.0
O O 0.18256299999999998 1.4448119 -0.3742912 0.0
O O 0.259313 1.39402 -0.3987012 0.0
N N 0.387681 1.1958199999999999 -0.2653814 0.0
N N 0.600198 0.93872 -0.0041314 0.0
C C 0.257961 1.0320200000000002 -0.3581014 0.0
H H 0.2625 0.9445 -0.3254 0.0
C C 0.20344099999999998 1.04213 -0.3984014 0.0
H H 0.2031 1.0992 -0.4471 0.0
C C 0.17917100000000002 1.1360299999999999 -0.3397414 0.0
H H 0.15050000000000002 1.1888 -0.3683 0.0
C C 0.22209099999999998 1.2401200000000001 -0.3102514 0.0
H H 0.21899999999999997 1.2737 -0.2565 0.0
C C 0.293931 1.0291299999999999 -0.4182315 0.0
C C 0.17656899999999998 0.90183 -0.4230215 0.0
C C 0.16447099999999998 1.05643 -0.2676515 0.0
C C 0.22230100000000003 1.37113 -0.3661815 0.0
C C 0.39304890000000003 1.0568300000000002 -0.2488818 0.0
H H 0.36860000000000004 0.9938 -0.2731 0.0
C C 0.4330888 1.00003 -0.1975419 0.0
H H 0.435 0.9012 -0.1882 0.0
C C 0.470419 1.09063 -0.1598317 0.0
C C 0.4642688 1.23673 -0.17642 0.0
H H 0.4875 1.3029 -0.1518 0.0
C C 0.42340880000000003 1.28363 -0.22962 0.0
H H 0.4207 1.3816000000000002 -0.2412 0.0
C C 0.5735110999999999 0.85043 -0.0572219 0.0
H H 0.5839 0.7552 -0.06 0.0
C C 0.5312711999999999 0.89463 -0.10802 0.0
H H 0.5139 0.8300000000000001 -0.1442 0.0
C C 0.514851 1.0366300000000002 -0.1046516 0.0
C C 0.5418411 1.12603 -0.0489318 0.0
H H 0.5318 1.221 -0.044 0.0
C C 0.5840411 1.07413 -0.0002918 0.0
H H 0.6019 1.1362999999999999 0.0367 0.0
Zn Zn 0.6730961 1.297253 0.84232817 0.0
Zn Zn 0.6723671099999999 0.8936930000000001 1.04948817 0.0
O O 0.732796 1.1575118 0.806891 0.0
O O 0.677837 1.1335199999999999 0.9249111999999999 0.0
O O 0.707947 0.91482 0.9583412 0.0
O O 0.802018 0.7836219 0.9008412 0.0
O O 0.865228 0.9119200000000001 0.9662013 0.0
O O 0.818207 0.93312 0.7525511 0.0
O O 0.863679 1.1234199999999999 0.7285813 0.0
O O 0.817437 1.4448119 0.8742912 0.0
O O 0.740687 1.39402 0.8987012 0.0
N N 0.6123190000000001 1.1958199999999999 0.7653814 0.0
N N 0.399802 0.93872 0.5041314 0.0
C C 0.742039 1.0320200000000002 0.8581014 0.0
H H 0.7375 0.9445 0.8254 0.0
C C 0.796559 1.04213 0.8984014 0.0
H H 0.7968999999999999 1.0992 0.9471 0.0
C C 0.820829 1.1360299999999999 0.8397414000000001 0.0
H H 0.8494999999999999 1.1888 0.8683000000000001 0.0
C C 0.777909 1.2401200000000001 0.8102514000000001 0.0
H H 0.781 1.2737 0.7565 0.0
C C 0.7060690000000001 1.0291299999999999 0.9182315 0.0
C C 0.823431 0.90183 0.9230214999999999 0.0
C C 0.835529 1.05643 0.7676514999999999 0.0
C C 0.7776989999999999 1.37113 0.8661814999999999 0.0
C C 0.6069511 1.0568300000000002 0.7488817999999999 0.0
H H 0.6314 0.9938 0.7731 0.0
C C 0.5669112000000001 1.00003 0.6975419 0.0
H H 0.565 0.9012 0.6882 0.0
C C 0.529581 1.09063 0.6598317 0.0
C C 0.5357312 1.23673 0.67642 0.0
H H 0.5125 1.3029 0.6517999999999999 0.0
C C 0.5765912 1.28363 0.7296199999999999 0.0
H H 0.5793 1.3816000000000002 0.7412 0.0
C C 0.4264889 0.85043 0.5572219 0.0
H H 0.4161 0.7552 0.56 0.0
C C 0.4687288 0.89463 0.60802 0.0
H H 0.4861 0.8300000000000001 0.6442 0.0
C C 0.485149 1.0366300000000002 0.6046516 0.0
C C 0.4581589 1.12603 0.5489318 0.0
H H 0.4682 1.221 0.544 0.0
C C 0.4159589 1.07413 0.5002918 0.0
H H 0.3981 1.1362999999999999 0.4633 0.0
Zn Zn 0.1730961 -0.797253 0.34232817 0.0
Zn Zn 0.17236711 -0.393693 0.54948817 0.0
O O 0.232796 -0.6575118 0.306891 0.0
O O 0.177837 -0.63352 0.4249112 0.0
O O 0.207947 -0.41482 0.4583412 0.0
O O 0.302018 -0.2836219 0.4008412 0.0
O O 0.365228 -0.41192 0.4662013 0.0
O O 0.318207 -0.43312 0.2525511 0.0
O O 0.363679 -0.62342 0.2285813 0.0
O O 0.317437 -0.9448119 0.3742912 0.0
O O 0.240687 -0.89402 0.3987012 0.0
N N 0.112319 -0.69582 0.2653814 0.0
N N -0.100198 -0.43872 0.0041314 0.0
C C 0.242039 -0.53202 0.3581014 0.0
H H 0.2375 -0.4445 0.3254 0.0
C C 0.296559 -0.54213 0.3984014 0.0
H H 0.2969 -0.5992 0.4471 0.0
C C 0.320829 -0.63603 0.3397414 0.0
H H 0.3495 -0.6888 0.3683 0.0
C C 0.277909 -0.74012 0.3102514 0.0
H H 0.281 -0.7737 0.2565 0.0
C C 0.206069 -0.52913 0.4182315 0.0
C C 0.323431 -0.40183 0.4230215 0.0
C C 0.335529 -0.55643 0.2676515 0.0
C C 0.277699 -0.87113 0.3661815 0.0
C C 0.1069511 -0.55683 0.2488818 0.0
H H 0.1314 -0.4938 0.2731 0.0
C C 0.0669112 -0.50003 0.1975419 0.0
H H 0.065 -0.4012 0.1882 0.0
C C 0.029581 -0.59063 0.1598317 0.0
C C 0.0357312 -0.73673 0.17642 0.0
H H 0.0125 -0.8029 0.1518 0.0
C C 0.0765912 -0.78363 0.22962 0.0
H H 0.0793 -0.8816 0.2412 0.0
C C -0.0735111 -0.35043 0.0572219 0.0
H H -0.0839 -0.2552 0.06 0.0
C C -0.0312712 -0.39463 0.10802 0.0
H H -0.0139 -0.33 0.1442 0.0
C C -0.014851 -0.53663 0.1046516 0.0
C C -0.0418411 -0.62603 0.0489318 0.0
H H -0.0318 -0.721 0.044 0.0
C C -0.0840411 -0.57413 0.0002918 0.0
H H -0.1019 -0.6363 -0.0367 0.0
Zn Zn -0.1730961 -0.797253 -0.84232817 0.0
Zn Zn -0.17236711 -0.393693 -1.04948817 0.0
O O -0.232796 -0.6575118 -0.806891 0.0
O O -0.177837 -0.63352 -0.9249111999999999 0.0
O O -0.207947 -0.41482 -0.9583412 0.0
O O -0.302018 -0.2836219 -0.9008412 0.0
O O -0.365228 -0.41192 -0.9662013 0.0
O O -0.318207 -0.43312 -0.7525511 0.0
O O -0.363679 -0.62342 -0.7285813 0.0
O O -0.317437 -0.9448119 -0.8742912 0.0
O O -0.240687 -0.89402 -0.8987012 0.0
N N -0.112319 -0.69582 -0.7653814 0.0
N N 0.100198 -0.43872 -0.5041314 0.0
C C -0.242039 -0.53202 -0.8581014 0.0
H H -0.2375 -0.4445 -0.8254 0.0
C C -0.296559 -0.54213 -0.8984014 0.0
H H -0.2969 -0.5992 -0.9471 0.0
C C -0.320829 -0.63603 -0.8397414000000001 0.0
H H -0.3495 -0.6888 -0.8683000000000001 0.0
C C -0.277909 -0.74012 -0.8102514000000001 0.0
H H -0.281 -0.7737 -0.7565 0.0
C C -0.206069 -0.52913 -0.9182315 0.0
C C -0.323431 -0.40183 -0.9230214999999999 0.0
C C -0.335529 -0.55643 -0.7676514999999999 0.0
C C -0.277699 -0.87113 -0.8661814999999999 0.0
C C -0.1069511 -0.55683 -0.7488817999999999 0.0
H H -0.1314 -0.4938 -0.7731 0.0
C C -0.0669112 -0.50003 -0.6975419 0.0
H H -0.065 -0.4012 -0.6882 0.0
C C -0.029581 -0.59063 -0.6598317 0.0
C C -0.0357312 -0.73673 -0.67642 0.0
H H -0.0125 -0.8029 -0.6517999999999999 0.0
C C -0.0765912 -0.78363 -0.7296199999999999 0.0
H H -0.0793 -0.8816 -0.7412 0.0
C C 0.0735111 -0.35043 -0.5572219 0.0
H H 0.0839 -0.2552 -0.56 0.0
C C 0.0312712 -0.39463 -0.60802 0.0
H H 0.0139 -0.33 -0.6442 0.0
C C 0.014851 -0.53663 -0.6046516 0.0
C C 0.0418411 -0.62603 -0.5489318 0.0
H H 0.0318 -0.721 -0.544 0.0
C C 0.0840411 -0.57413 -0.5002918 0.0
H H 0.1019 -0.6363 -0.4633 0.0
Zn Zn 0.6730961 -0.297253 0.34232817 0.0
Zn Zn 0.6723671099999999 0.10630699999999998 0.54948817 0.0
O O 0.732796 -0.15751179999999998 0.306891 0.0
O O 0.677837 -0.13351999999999997 0.4249112 0.0
O O 0.707947 0.08517999999999998 0.4583412 0.0
O O 0.802018 0.21637810000000002 0.4008412 0.0
O O 0.865228 0.08807999999999999 0.4662013 0.0
O O 0.818207 0.06688 0.2525511 0.0
O O 0.863679 -0.12341999999999997 0.2285813 0.0
O O 0.817437 -0.44481190000000004 0.3742912 0.0
O O 0.740687 -0.39402000000000004 0.3987012 0.0
N N 0.6123190000000001 -0.19582 0.2653814 0.0
N N 0.399802 0.06128 0.0041314 0.0
C C 0.742039 -0.03202000000000005 0.3581014 0.0
H H 0.7375 0.055499999999999994 0.3254 0.0
C C 0.796559 -0.04213 0.3984014 0.0
H H 0.7968999999999999 -0.09919999999999995 0.4471 0.0
C C 0.820829 -0.13602999999999998 0.3397414 0.0
H H 0.8494999999999999 -0.18879999999999997 0.3683 0.0
C C 0.777909 -0.24012 0.3102514 0.0
H H 0.781 -0.27370000000000005 0.2565 0.0
C C 0.7060690000000001 -0.02912999999999999 0.4182315 0.0
C C 0.823431 0.09816999999999998 0.4230215 0.0
C C 0.835529 -0.05642999999999998 0.2676515 0.0
C C 0.7776989999999999 -0.37112999999999996 0.3661815 0.0
C C 0.6069511 -0.05683000000000005 0.2488818 0.0
H H 0.6314 0.006199999999999983 0.2731 0.0
C C 0.5669112000000001 -2.999999999997449e-05 0.1975419 0.0
H H 0.565 0.0988 0.1882 0.0
C C 0.529581 -0.09062999999999999 0.1598317 0.0
C C 0.5357312 -0.23673 0.17642 0.0
H H 0.5125 -0.30289999999999995 0.1518 0.0
C C 0.5765912 -0.28363000000000005 0.22962 0.0
H H 0.5793 -0.38160000000000005 0.2412 0.0
C C 0.4264889 0.14956999999999998 0.0572219 0.0
H H 0.4161 0.24480000000000002 0.06 0.0
C C 0.4687288 0.10537000000000002 0.10802 0.0
H H 0.4861 0.16999999999999998 0.1442 0.0
C C 0.485149 -0.03663000000000005 0.1046516 0.0
C C 0.4581589 -0.12602999999999998 0.0489318 0.0
H H 0.4682 -0.22099999999999997 0.044 0.0
C C 0.4159589 -0.07413000000000003 0.0002918 0.0
H H 0.3981 -0.13629999999999998 -0.0367 0.0
Zn Zn 0.3269039 -0.297253 -0.84232817 0.0
Zn Zn 0.32763289 0.10630699999999998 -1.04948817 0.0
O O 0.267204 -0.15751179999999998 -0.806891 0.0
O O 0.322163 -0.13351999999999997 -0.9249111999999999 0.0
O O 0.292053 0.08517999999999998 -0.9583412 0.0
O O 0.197982 0.21637810000000002 -0.9008412 0.0
O O 0.134772 0.08807999999999999 -0.9662013 0.0
O O 0.18179299999999998 0.06688 -0.7525511 0.0
O O 0.13632100000000003 -0.12341999999999997 -0.7285813 0.0
O O 0.18256299999999998 -0.44481190000000004 -0.8742912 0.0
O O 0.259313 -0.39402000000000004 -0.8987012 0.0
N N 0.387681 -0.19582 -0.7653814 0.0
N N 0.600198 0.06128 -0.5041314 0.0
C C 0.257961 -0.03202000000000005 -0.8581014 0.0
H H 0.2625 0.055499999999999994 -0.8254 0.0
C C 0.20344099999999998 -0.04213 -0.8984014 0.0
H H 0.2031 -0.09919999999999995 -0.9471 0.0
C C 0.17917100000000002 -0.13602999999999998 -0.8397414000000001 0.0
H H 0.15050000000000002 -0.18879999999999997 -0.8683000000000001 0.0
C C 0.22209099999999998 -0.24012 -0.8102514000000001 0.0
H H 0.21899999999999997 -0.27370000000000005 -0.7565 0.0
C C 0.293931 -0.02912999999999999 -0.9182315 0.0
C C 0.17656899999999998 0.09816999999999998 -0.9230214999999999 0.0
C C 0.16447099999999998 -0.05642999999999998 -0.7676514999999999 0.0
C C 0.22230100000000003 -0.37112999999999996 -0.8661814999999999 0.0
C C 0.39304890000000003 -0.05683000000000005 -0.7488817999999999 0.0
H H 0.36860000000000004 0.006199999999999983 -0.7731 0.0
C C 0.4330888 -2.999999999997449e-05 -0.6975419 0.0
H H 0.435 0.0988 -0.6882 0.0
C C 0.470419 -0.09062999999999999 -0.6598317 0.0
C C 0.4642688 -0.23673 -0.67642 0.0
H H 0.4875 -0.30289999999999995 -0.6517999999999999 0.0
C C 0.42340880000000003 -0.28363000000000005 -0.7296199999999999 0.0
H H 0.4207 -0.38160000000000005 -0.7412 0.0
C C 0.5735110999999999 0.14956999999999998 -0.5572219 0.0
H H 0.5839 0.24480000000000002 -0.56 0.0
C C 0.5312711999999999 0.10537000000000002 -0.60802 0.0
H H 0.5139 0.16999999999999998 -0.6442 0.0
C C 0.514851 -0.03663000000000005 -0.6046516 0.0
C C 0.5418411 -0.12602999999999998 -0.5489318 0.0
H H 0.5318 -0.22099999999999997 -0.544 0.0
C C 0.5840411 -0.07413000000000003 -0.5002918 0.0
H H 0.6019 -0.13629999999999998 -0.4633 0.0
