_cell_length_a 13.649
_cell_length_b 13.649
_cell_length_c 8.092
_cell_angle_alpha 90.0
_cell_angle_beta 90.0
_cell_angle_gamma 90.0
_symmetry_space_group_name_H-M         'P 1'
_symmetry_Int_Tables_number            1
loop_
_symmetry_equiv_pos_as_xyz
   'x, y, z'
                         
loop_
_atom_site_label
_atom_site_type_symbol
_atom_site_fract_x 
_atom_site_fract_y
_atom_site_fract_z
_atom_site_charge
C7 C7 0.0 0.29965 0.35068 0.0
C9 C9 0.0 0.19818 0.3558 0.0
C7 C7 0.5 0.79965 0.85068 0.0
C9 C9 0.5 0.69818 0.8558 0.0
C7 C7 0.0 0.70035 0.35068 0.0
C9 C9 0.0 0.80182 0.3558 0.0
C7 C7 0.5 0.20035 0.85068 0.0
C9 C9 0.5 0.30182 0.8558 0.0
C7 C7 0.70035 0.0 0.35068 0.0
C9 C9 0.80182 0.0 0.3558 0.0
C7 C7 0.20035 0.5 0.85068 0.0
C9 C9 0.30182 0.5 0.8558 0.0
C7 C7 0.29965 0.0 0.35068 0.0
C9 C9 0.19818 0.0 0.3558 0.0
C7 C7 0.79965 0.5 0.85068 0.0
C9 C9 0.69818 0.5 0.8558 0.0
C7 C7 0.0 0.29965 0.64932 0.0
C9 C9 0.0 0.19818 0.6442 0.0
C7 C7 0.5 0.79965 0.14932 0.0
C9 C9 0.5 0.69818 0.1442 0.0
C7 C7 0.0 0.70035 0.64932 0.0
C9 C9 0.0 0.80182 0.6442 0.0
C7 C7 0.5 0.20035 0.14932 0.0
C9 C9 0.5 0.30182 0.1442 0.0
C7 C7 0.29965 0.0 0.64932 0.0
C9 C9 0.19818 0.0 0.6442 0.0
C7 C7 0.79965 0.5 0.14932 0.0
C9 C9 0.69818 0.5 0.1442 0.0
C7 C7 0.70035 0.0 0.64932 0.0
C9 C9 0.80182 0.0 0.6442 0.0
C7 C7 0.20035 0.5 0.14932 0.0
C9 C9 0.30182 0.5 0.1442 0.0
C5 C5 0.0 0.45542 0.5 0.0
C8 C8 0.0 0.35227 0.5 0.0
C5 C5 0.5 0.95542 0.0 0.0
C5 C5 0.5 0.85227 0.0 0.0
C5 C5 0.0 0.54458 0.5 0.0
C8 C8 0.0 0.64773 0.5 0.0
C5 C5 0.5 0.04458 0.0 0.0
C5 C5 0.5 0.14773 0.0 0.0
C5 C5 0.54458 0.0 0.5 0.0
C8 C8 0.64773 0.0 0.5 0.0
C5 C5 0.04458 0.5 0.0 0.0
C8 C8 0.14773 0.5 0.0 0.0
C5 C5 0.45542 0.0 0.5 0.0
C8 C8 0.35227 0.0 0.5 0.0
C5 C5 0.95542 0.5 0.0 0.0
C8 C8 0.85227 0.5 0.0 0.0
H H 0.0 0.33742 0.2322 0.0
H H 0.0 0.15511 0.24257 0.0
H H 0.5 0.83742 0.7322 0.0
H H 0.5 0.65511 0.74257 0.0
H H 0.0 0.66258 0.2322 0.0
H H 0.0 0.84489 0.24257 0.0
H H 0.5 0.16258 0.7322 0.0
H H 0.5 0.34489 0.74257 0.0
H H 0.66258 0.0 0.2322 0.0
H H 0.84489 0.0 0.24257 0.0
H H 0.16258 0.5 0.7322 0.0
H H 0.34489 0.5 0.74257 0.0
H H 0.33742 0.0 0.2322 0.0
H H 0.15511 0.0 0.24257 0.0
H H 0.83742 0.5 0.7322 0.0
H H 0.65511 0.5 0.74257 0.0
H H 0.0 0.33742 0.7678 0.0
H H 0.0 0.15511 0.75743 0.0
H H 0.5 0.83742 0.2678 0.0
H H 0.5 0.65511 0.25743 0.0
H H 0.0 0.66258 0.7678 0.0
H H 0.0 0.84489 0.75743 0.0
H H 0.5 0.16258 0.2678 0.0
H H 0.5 0.34489 0.25743 0.0
H H 0.33742 0.0 0.7678 0.0
H H 0.15511 0.0 0.75743 0.0
H H 0.83742 0.5 0.2678 0.0
H H 0.65511 0.5 0.25743 0.0
H H 0.66258 0.0 0.7678 0.0
H H 0.84489 0.0 0.75743 0.0
H H 0.16258 0.5 0.2678 0.0
H H 0.34489 0.5 0.25743 0.0
Cu Cu 0.0 0.0 0.5 0.0
Cu Cu 0.5 0.5 0.0 0.0
Si Si 0.0 0.0 0.0 0.0
Si Si 0.5 0.5 0.5 0.0
N N 0.0 0.14841 0.5 0.0
N N 0.5 0.64841 0.0 0.0
N N 0.0 0.85159 0.5 0.0
N N 0.5 0.35159 0.0 0.0
N N 0.85159 0.0 0.5 0.0
N N 0.35159 0.5 0.0 0.0
N N 0.14841 0.0 0.5 0.0
N N 0.64841 0.5 0.0 0.0
F3 F3 0.0 0.0 0.78465 0.0
F3 F3 0.5 0.5 0.28465 0.0
F3 F3 0.0 0.0 0.21535 0.0
F3 F3 0.5 0.5 0.71535 0.0
F F 0.58849 0.58849 0.5 0.0
F F 0.58849 0.41152 0.5 0.0
F F 0.41152 0.58849 0.5 0.0
F F 0.41152 0.41152 0.5 0.0
F F 0.08849 0.08849 0.0 0.0
F F 0.91152 0.91152 0.0 0.0
F F 0.91152 0.08849 0.0 0.0
F F 0.08849 0.91152 0.0 0.0
