_cell_length_a 8.39304
_cell_length_b 22.23511
_cell_length_c 18.74218
_cell_angle_alpha 90.0
_cell_angle_beta 94.0312
_cell_angle_gamma 90.0
_symmetry_space_group_name_H-M         'P 1'
_symmetry_Int_Tables_number            1
loop_
_symmetry_equiv_pos_as_xyz
   'x, y, z'
                         
loop_
_atom_site_label
_atom_site_type_symbol
_atom_site_fract_x 
_atom_site_fract_y
_atom_site_fract_z
_atom_site_charge
Cd Cd 0.30920183133514545 0.5592462094584033 0.9840239567668071 0.0
O O 0.42137161515491695 0.4575284459432454 1.0500078757111964 0.0
O O 0.19940828770086413 0.5028071784900081 1.0702356427110804 0.0
O O 0.9075953217578578 0.7628154689482779 1.1586825235389755 0.0
O O 0.4418563580723116 0.7688113436775121 1.2631392045155676 0.0
N N 0.4427774943111413 0.6183382450228204 1.0629958166248572 0.0
N N 0.6368176431938292 0.762857334359952 1.191293782356061 0.0
C C 0.29177715148306427 0.46163870483026304 1.0861791368253821 0.0
C C 0.25894341061435916 0.41801084238380404 1.1522040460951521 0.0
C C 0.13305315766236414 0.42256289113880485 1.169855164578135 0.0
H H 0.05814315766236411 0.45342289113880485 1.1572151645781348 0.0
C C 0.083999990499293 0.3839705676022021 1.2344755224925543 0.0
H H -0.014910009500707028 0.3845305676022021 1.2561355224925543 0.0
C C 0.22445458170957205 0.3428288382138668 1.249297369645903 0.0
C C 0.3339779957769178 0.3421837530898235 1.20959328259466 0.0
C C 0.3759280407096299 0.3831842476792747 1.1734939563672433 0.0
H H 0.47353804070962996 0.3811542476792747 1.1509639563672431 0.0
C C 0.5659988958102501 0.786208186681772 1.2582141591437292 0.0
C C 0.7743956674250877 0.7767779402558429 1.2007345080833134 0.0
C C 0.5382500320866502 0.664440534950594 1.0496721364356194 0.0
H H 0.5666600320866503 0.6617105349505941 1.0015421364356194 0.0
C C 0.6393343559620186 0.7154074259814865 1.0827083240159656 0.0
H H 0.7101443559620187 0.7437774259814863 1.0641683240159656 0.0
C C 0.5802780294158837 0.7125115635023666 1.1621233845408576 0.0
C C 0.4792540150673958 0.6661955629122501 1.1745294232711945 0.0
H H 0.4509440150673958 0.6663655629122501 1.2226894232711945 0.0
C C 0.4346615016483442 0.6227677002011801 1.1405917206791611 0.0
H H 0.36117150164834416 0.59423770020118 1.156951720679161 0.0
O O 0.2790667131583637 0.6437053873772751 0.9167038413803601 0.0
O O 0.07832149482591887 0.6195510745953338 0.9949682127984444 0.0
O O -0.15812411997775014 0.35036544824489774 0.7506300781613756 0.0
O O 0.3569475669733324 0.3858503736941951 0.6671770022636485 0.0
N N 0.13208954268993217 0.3658586017270575 0.7454651093975884 0.0
N N 0.23932910218819867 0.49717810549819924 0.8980040927394496 0.0
C C 0.15335202588440683 0.6508124070926005 0.9293752944480136 0.0
C C 0.06687454816202883 0.7112215572987715 0.9158283750444646 0.0
C C -0.09515178269108812 0.711242178106128 0.9397065543988601 0.0
H H -0.12936178269108817 0.6865121781061281 0.97696655439886 0.0
C C 0.2126905488826935 0.2664837874679695 0.5830845557611549 0.0
H H 0.3111005488826935 0.2753537874679695 0.5633445557611548 0.0
C C 0.13052186515587094 0.2998838824874686 0.651953137317112 0.0
C C -0.0005417864758904433 0.28884952786697643 0.6681850867135318 0.0
C C 0.10625342058754883 0.7354582580438193 0.8578314098806278 0.0
H H 0.20674342058754885 0.7280282580438193 0.8390914098806278 0.0
C C 0.21575057597520775 0.34411099390210564 0.6809481393517417 0.0
C C -0.04062118585065149 0.34042130486741595 0.722368401255808 0.0
C C 0.27179548546206395 0.5094014997091351 0.8270716670062662 0.0
H H 0.32731548546206396 0.5451714997091351 0.8168416670062663 0.0
C C 0.2436687487342386 0.47250346237552726 0.7809811545072235 0.0
H H 0.2719787487342386 0.48097346237552724 0.7338411545072235 0.0
C C 0.15367609330618281 0.4121537543317869 0.7853129331417048 0.0
C C 0.10202467339209291 0.39932487047277265 0.8495602500705507 0.0
H H 0.04204467339209291 0.36489487047277264 0.8614202500705507 0.0
C C 0.1379760078482509 0.44558798982511183 0.9089497663843122 0.0
H H 0.10622600784825088 0.43896798982511176 0.9560297663843123 0.0
Cd Cd -0.30001974899853195 1.0533031325096933 -0.4909162005805058 0.0
O O -0.41688370979083667 0.9615116224328751 -0.562447971210613 0.0
O O -0.1884493511078663 1.0003027536478033 -0.5788845093437951 0.0
O O -0.8998617095928341 1.2599861226248696 -0.6489997644364259 0.0
O O -0.43101924919238244 1.2625484859878977 -0.7577004163453004 0.0
N N -0.4418688501226967 1.1191957617084503 -0.5630124775474291 0.0
N N -0.6227141760228859 1.2632280120114712 -0.7103390110122848 0.0
C C -0.30249419696134733 0.962539022835119 -0.5935318288259276 0.0
C C -0.2597888540070166 0.9258139167763053 -0.6405526322423917 0.0
C C -0.13861230144429157 0.9310020310824455 -0.6718312326587074 0.0
H H -0.06370230144429156 0.9618620310824456 -0.6591912326587074 0.0
C C -0.11395434216658087 0.8796932742766382 -0.74410086353302 0.0
H H -0.015044342166580849 0.8802532742766382 -0.76576086353302 0.0
C C -0.2242758751861904 0.835766768400654 -0.7399330344545133 0.0
C C -0.33498704851064637 0.8282638621301268 -0.7182902611755569 0.0
C C -0.3955278184289054 0.882395008954984 -0.6717403759377868 0.0
H H -0.4931378184289055 0.880365008954984 -0.6492103759377869 0.0
C C -0.5703288916165781 1.2803947373497016 -0.7551755434474575 0.0
C C -0.8063216979509359 1.287747441297543 -0.6995397796140165 0.0
C C -0.5779092698598781 1.1620753273051136 -0.5430593630745524 0.0
H H -0.6063192698598783 1.1593453273051135 -0.49492936307455254 0.0
C C -0.6291136163242028 1.2068956250866625 -0.5775482271591976 0.0
H H -0.699923616324203 1.2352656250866625 -0.5590082271591975 0.0
C C -0.5940712009395465 1.2096171827974034 -0.6601086778847378 0.0
C C -0.4692415599312497 1.1593589153040866 -0.6716233719063954 0.0
H H -0.4409315599312497 1.1595289153040866 -0.7197833719063953 0.0
C C -0.43689789497640447 1.1237370700751965 -0.6366109203902308 0.0
H H -0.3634078949764044 1.0952070700751966 -0.6529709203902311 0.0
O O -0.2768034744088062 1.1390174639285096 -0.4152300473875482 0.0
O O -0.09533772835261559 1.1184354032181147 -0.4861653915952274 0.0
O O 0.1635471300444506 0.8298005634886338 -0.25449209399040124 0.0
O O -0.3308893072106274 0.8779596718056751 -0.17852898911729886 0.0
N N -0.10467486048989205 0.8673279882385788 -0.24201899652140793 0.0
N N -0.21868940351960348 0.992744020304995 -0.3920999184435984 0.0
C C -0.1406925561654343 1.14915863846048 -0.4424560775551703 0.0
C C -0.032946805578126806 1.2002522484678744 -0.4121794546960283 0.0
C C 0.07866627136060741 1.2179621221400547 -0.4398062936297124 0.0
H H 0.1128762713606074 1.1932321221400546 -0.47706629362971237 0.0
C C -0.18772034852764385 0.7663220648137624 -0.09351265540927636 0.0
H H -0.28613034852764385 0.7751920648137625 -0.0737726554092764 0.0
C C -0.16014474291143285 0.8054540577805579 -0.14760215715687397 0.0
C C -0.014367830888049151 0.7883156037426462 -0.18142205348655321 0.0
C C -0.11789636949550515 1.2444940817782988 -0.3508123752001478 0.0
H H -0.2183863694955051 1.2370640817782987 -0.3320723752001478 0.0
C C -0.21786358464657035 0.8590193019272518 -0.18275683746897567 0.0
C C 0.034952051390804026 0.8357088889871683 -0.2211090128515242 0.0
C C -0.25636045837641686 1.002377511334656 -0.3299433591260214 0.0
H H -0.3118804583764168 1.038147511334656 -0.31971335912602145 0.0
C C -0.21704395255472522 0.9724930288305229 -0.2720158690005749 0.0
H H -0.24535395255472522 0.9809630288305229 -0.2248758690005749 0.0
C C -0.15417817088831798 0.918455250471849 -0.28026733105920043 0.0
C C -0.10627809415817191 0.9014402208470325 -0.364941060248924 0.0
H H -0.04629809415817191 0.8670102208470326 -0.376801060248924 0.0
C C -0.137258274378581 0.9497317495499575 -0.41665909531709566 0.0
H H -0.105508274378581 0.9431117495499575 -0.4637390953170956 0.0
Cd Cd -0.31856382529910515 -0.5579405801389977 -0.9838175158404048 0.0
O O -0.4238275012924058 -0.4548220648760386 -1.0505057826475726 0.0
O O -0.19508014091887105 -0.5037664946600552 -1.0837213045476437 0.0
O O -0.919305097666997 -0.7719440534746422 -1.1719306217763614 0.0
O O -0.3895585076118873 -0.7772830717681254 -1.2739794370796385 0.0
N N -0.44303221379316937 -0.6163624791133865 -1.0604480062829573 0.0
N N -0.649021904836355 -0.7645754416120379 -1.2005688076703427 0.0
C C -0.3158213738020812 -0.47092899844193753 -1.09438345541972 0.0
C C -0.2733487240095937 -0.4262937864144445 -1.1533591072084821 0.0
C C -0.14596568414308758 -0.4226060540802556 -1.1809412392456327 0.0
H H -0.07105568414308755 -0.45346605408025564 -1.1683012392456327 0.0
C C -0.11396972945230029 -0.37189459396685753 -1.231333262278032 0.0
H H -0.015059729452300264 -0.37245459396685754 -1.2529932622780322 0.0
C C -0.2098173493713222 -0.3337272016654146 -1.2430536915711814 0.0
C C -0.3646184094459085 -0.3367908875974609 -1.2220035702818004 0.0
C C -0.37771541343791865 -0.3739144486423844 -1.1567935264058917 0.0
H H -0.47532541343791873 -0.3718844486423844 -1.1342635264058918 0.0
C C -0.5413000459632233 -0.7799094163072511 -1.2427462252749109 0.0
C C -0.8008450058291477 -0.7803680862622007 -1.1925660029427767 0.0
C C -0.5549447086967562 -0.6574298017825861 -1.04969663733687 0.0
H H -0.5833547086967562 -0.6546998017825862 -1.00156663733687 0.0
C C -0.6116235445115175 -0.7052249479099089 -1.0916474277525894 0.0
H H -0.6824335445115174 -0.7335949479099086 -1.0731074277525894 0.0
C C -0.5710445247514162 -0.7118443624277004 -1.1454705869371289 0.0
C C -0.4716197139833922 -0.6723263582024149 -1.1855072931897137 0.0
H H -0.4433097139833922 -0.6724963582024149 -1.233667293189714 0.0
C C -0.4368144030975592 -0.6318043951502073 -1.1359320900990124 0.0
H H -0.3633244030975592 -0.6032743951502073 -1.1522920900990123 0.0
O O -0.26340809859046616 -0.646799730761124 -0.9014393835621396 0.0
O O -0.10525805510624625 -0.6215189864790946 -0.9835271750275075 0.0
O O 0.1419797926673293 -0.33565210091138115 -0.7753621368943528 0.0
O O -0.3262172039580811 -0.3671363176110259 -0.6813495663374446 0.0
N N -0.09419285706023715 -0.364329704425766 -0.7407169300436225 0.0
N N -0.2271953891306577 -0.4906989295121891 -0.9052263960984152 0.0
C C -0.15490962034519412 -0.6563101164220002 -0.9346221703919385 0.0
C C -0.030141912269984614 -0.7122666529489136 -0.9060126740521207 0.0
C C 0.08276851513469671 -0.7135088516633147 -0.9454362855653677 0.0
H H 0.11697851513469675 -0.6887788516633148 -0.9826962855653677 0.0
C C -0.1964345408065501 -0.26803563252941415 -0.5890033803821684 0.0
H H -0.2948445408065501 -0.27690563252941414 -0.5692633803821684 0.0
C C -0.11637712226400795 -0.30822152905120426 -0.6378503877557663 0.0
C C 0.015474284725174757 -0.2801805335641133 -0.663217105979115 0.0
C C -0.10599609766604384 -0.7360148754174424 -0.8626185354423929 0.0
H H -0.20648609766604384 -0.7285848754174424 -0.8438785354423928 0.0
C C -0.2182802914094701 -0.35126244911500115 -0.6747813561953306 0.0
C C 0.037162764305683285 -0.3337023527762591 -0.7287747952758049 0.0
C C -0.27119755095022136 -0.5055537455036423 -0.8347373145041059 0.0
H H -0.3267175509502213 -0.5413237455036424 -0.8245073145041059 0.0
C C -0.24546431834351115 -0.4584124751424017 -0.7764364859714807 0.0
H H -0.2737743183435112 -0.46688247514240167 -0.7292964859714809 0.0
C C -0.13954116229455757 -0.4159334951478066 -0.7974990989331096 0.0
C C -0.10477495213263845 -0.40438964890651113 -0.8560565305360833 0.0
H H -0.04479495213263846 -0.3699596489065111 -0.8679165305360834 0.0
C C -0.13382414090661357 -0.4387366853084444 -0.9030950735948629 0.0
H H -0.10207414090661356 -0.4321166853084443 -0.9501750735948629 0.0
Cd Cd 0.33171659849329643 -1.0571021778631637 0.4918488411611187 0.0
O O 0.4323087495393559 -0.9641830747431791 0.5629919290371018 0.0
O O 0.21495628514206058 -1.0081943520243932 0.5777047093400671 0.0
O O 0.8863659461501018 -1.269048663153002 0.6487802329011901 0.0
O O 0.4253526094323554 -1.2589565820986526 0.7515502319149405 0.0
N N 0.4669886577354463 -1.125372550333199 0.5574924632801653 0.0
N N 0.639227429789184 -1.2525208415472198 0.6926733814377506 0.0
C C 0.31762135244891987 -0.9633870701626305 0.594358327363079 0.0
C C 0.25784274266704177 -0.9254141159128187 0.6491725480771637 0.0
C C 0.15422241405708992 -0.9220388944575485 0.6815185582731738 0.0
H H 0.07931241405708993 -0.9528988944575487 0.6688785582731738 0.0
C C 0.1110390268521653 -0.8729680893155396 0.7311773390314427 0.0
H H 0.012129026852165277 -0.8735280893155396 0.7528373390314427 0.0
C C 0.18919668566082704 -0.8324407181915292 0.7471933816620235 0.0
C C 0.3743407897212523 -0.8350859519726122 0.7213581949085057 0.0
C C 0.3721524519090633 -0.8776645660067647 0.6721266616276114 0.0
H H 0.4697624519090634 -0.8756345660067647 0.6495966616276113 0.0
C C 0.5449855391547754 -1.292437912034116 0.749028144864321 0.0
C C 0.8114701013856097 -1.2774849776497026 0.695820386647366 0.0
C C 0.5720581141281226 -1.1669764023849725 0.544343132188555 0.0
H H 0.6004681141281227 -1.1642464023849723 0.4962131321885552 0.0
C C 0.6252754302475162 -1.2052008127776512 0.591428085612043 0.0
H H 0.6960854302475163 -1.2335708127776512 0.5728880856120429 0.0
C C 0.6007766260651197 -1.2080551825812507 0.6635284299460145 0.0
C C 0.4714528507641507 -1.1719313487044407 0.6834601718449587 0.0
H H 0.4431428507641507 -1.1721013487044407 0.7316201718449586 0.0
C C 0.403958369747235 -1.1254809649940076 0.6260003455999446 0.0
H H 0.3304683697472349 -1.0969509649940077 0.6423603455999448 0.0
O O 0.29024717783282483 -1.135101927656028 0.40579919161174066 0.0
O O 0.10986519621499205 -1.1216591168434182 0.47942522512816366 0.0
O O -0.13611607471365253 -0.8346518562093516 0.2516531935825177 0.0
O O 0.34650305313294505 -0.8784709710574835 0.17644705440894423 0.0
N N 0.0892930777397543 -0.8667826749756871 0.2315913089428954 0.0
N N 0.21379394288683287 -0.9915307413495281 0.3993323085592609 0.0
C C 0.12662848659521775 -1.1502975786171568 0.44370787678387885 0.0
C C 0.025229578910812858 -1.2034744254913106 0.40000392433272264 0.0
C C -0.09967706047978757 -1.2258080465237884 0.4337004340573663 0.0
H H -0.13388706047978755 -1.2010780465237885 0.4709604340573663 0.0
C C 0.18541210157324242 -0.7689723164141604 0.07859569266486464 0.0
H H 0.28382210157324245 -0.7778423164141605 0.058855692664864664 0.0
C C 0.14213510537229623 -0.8030232425424391 0.13972488753014659 0.0
C C -0.007317361562038201 -0.7815580984095404 0.16721890944390208 0.0
C C 0.10913291302088299 -1.2458322504267803 0.36252752633148305 0.0
H H 0.20962291302088298 -1.2384022504267804 0.3437875263314831 0.0
C C 0.2062062983289967 -0.8477888683894802 0.18503883058662027 0.0
C C -0.028700200733812253 -0.8413036012163824 0.220981200494334 0.0
C C 0.27256718032335225 -1.010730730453236 0.3326923086423477 0.0
H H 0.32808718032335227 -1.046500730453236 0.3224623086423478 0.0
C C 0.24304167103739074 -0.9615404178658469 0.2769214004698023 0.0
H H 0.2713516710373907 -0.9700104178658469 0.22978140046980233 0.0
C C 0.13308397195206725 -0.9077548692812484 0.2938283832442992 0.0
C C 0.11408835128780967 -0.8988134934365254 0.36111362343707826 0.0
H H 0.05410835128780967 -0.8643834934365254 0.3729736234370783 0.0
C C 0.1339329853517758 -0.9416192102145525 0.4011739052173577 0.0
H H 0.10218298535177579 -0.9349992102145525 0.4482539052173577 0.0
