_cell_length_a 8.39304
_cell_length_b 22.23511
_cell_length_c 18.74218
_cell_angle_alpha 90.0
_cell_angle_beta 94.0312
_cell_angle_gamma 90.0
_symmetry_space_group_name_H-M         'P 1'
_symmetry_Int_Tables_number            1
loop_
_symmetry_equiv_pos_as_xyz
   'x, y, z'
                         
loop_
_atom_site_label
_atom_site_type_symbol
_atom_site_fract_x 
_atom_site_fract_y
_atom_site_fract_z
_atom_site_charge
Cd Cd 0.3140254221249745 0.5544452906848746 0.992026651131692 0.0
O O 0.4309770485320641 0.4591720267180649 1.052002530072324 0.0
O O 0.22731489229565283 0.5037809977821847 1.0767264041592512 0.0
O O 0.911936725117372 0.7718133665268232 1.1720084551776397 0.0
O O 0.43470190507311857 0.7651412221008859 1.2690988739866 0.0
N N 0.44014677003273545 0.6241566205369682 1.0707390508971535 0.0
N N 0.6551480735742449 0.7507913266453768 1.2066114805926313 0.0
C C 0.29612823218227863 0.46552561264378073 1.0962138760484468 0.0
C C 0.2875267805526958 0.42344961397931746 1.1428644886049528 0.0
C C 0.1210203705721391 0.4148666916147026 1.170861346433589 0.0
H H 0.04611037057213907 0.44572669161470263 1.158221346433589 0.0
C C 0.10767420365354334 0.38048505376585656 1.2287800207813395 0.0
H H 0.008764203653543324 0.38104505376585657 1.2504400207813395 0.0
C C 0.20869004838423538 0.3375565672347568 1.255356031381754 0.0
C C 0.35991115604448076 0.33774548884040684 1.2156064075245574 0.0
C C 0.3741644073605519 0.37643700146408066 1.158302743278279 0.0
H H 0.47177440736055204 0.3744070014640807 1.1357727432782792 0.0
C C 0.5270966854829645 0.7830137886159395 1.244612103018367 0.0
C C 0.8016691810380006 0.7867345433236592 1.1928308337638946 0.0
C C 0.5625932080840667 0.6621296429188349 1.03575097730744 0.0
H H 0.5910032080840667 0.659399642918835 0.9876209773074401 0.0
C C 0.6398243255638827 0.7093420159718087 1.0757109918540346 0.0
H H 0.7106343255638828 0.7377120159718085 1.0571709918540346 0.0
C C 0.5944056885676362 0.7070435953106512 1.1513260815937838 0.0
C C 0.4557197111515189 0.6639727432751753 1.1808224769626847 0.0
H H 0.42740971115151893 0.6641427432751753 1.2289824769626847 0.0
C C 0.4196528203761781 0.6292042584448007 1.1236303990505776 0.0
H H 0.3461628203761781 0.6006742584448007 1.1399903990505775 0.0
O O 0.2615563514387292 0.6446033638123589 0.9031846685522521 0.0
O O 0.07604237373517612 0.6239405836377169 0.9881567966507958 0.0
O O -0.1488780247188723 0.33496951116583523 0.7750959044244234 0.0
O O 0.32385846135404717 0.37415245455874085 0.6784594285888367 0.0
N N 0.10098445388020408 0.36501801264561995 0.7359025291590476 0.0
N N 0.21892955729229516 0.4964560392643889 0.897191660600332 0.0
C C 0.16150767148634892 0.6558357970581526 0.9348521921508665 0.0
C C 0.059363422612223056 0.703899840110728 0.9060072678558047 0.0
C C -0.1140556775969531 0.72417834630541 0.9348271476926022 0.0
H H -0.1482656775969531 0.6994483463054101 0.9720871476926021 0.0
C C 0.1811158968474712 0.26025407312330845 0.5899592777414437 0.0
H H 0.2795258968474712 0.26912407312330844 0.5702192777414438 0.0
C C 0.14413349398566058 0.30652219132927233 0.6419904805807916 0.0
C C -0.011369369777747822 0.28895042267638005 0.6714551115051389 0.0
C C 0.11574609354614268 0.7371000039670421 0.8631648832312916 0.0
H H 0.21623609354614273 0.7296700039670421 0.8444248832312917 0.0
C C 0.19819500685600525 0.3540682763101364 0.6757086133778153 0.0
C C -0.042412685697089024 0.32552698543094344 0.7221113220717504 0.0
C C 0.24571909291878277 0.5079423237689622 0.8312699731760711 0.0
H H 0.30123909291878276 0.5437123237689623 0.821039973176071 0.0
C C 0.23587591205413747 0.46971862985566004 0.7658713958205368 0.0
H H 0.26418591205413744 0.47818862985566 0.7187313958205369 0.0
C C 0.15040723724091437 0.4148416730796568 0.7829623937352388 0.0
C C 0.11191473566473721 0.4000332855837145 0.8480847313788955 0.0
H H 0.05193473566473722 0.3656032855837145 0.8599447313788957 0.0
C C 0.1460767160313123 0.44071534340070434 0.9140663546924757 0.0
H H 0.1143267160313123 0.43409534340070427 0.9611463546924757 0.0
Cd Cd -0.30077545395239647 1.0564042514978953 -0.492437167733064 0.0
O O -0.4192215829997699 0.9533981765473638 -0.5532903560577083 0.0
O O -0.18752644203472968 1.0070689032759519 -0.5801521919406527 0.0
O O -0.9172062806446643 1.2692021748816178 -0.6575460174129311 0.0
O O -0.4052008087045264 1.2660717810068856 -0.7785858717943235 0.0
N N -0.46292866969589314 1.1255012935438535 -0.5613626811645517 0.0
N N -0.6583236033499698 1.259597920057562 -0.7100142552307047 0.0
C C -0.2861073256806972 0.960819218517229 -0.5890507446384449 0.0
C C -0.270297353654396 0.9202539185976205 -0.6523587384570392 0.0
C C -0.13690396097567398 0.9255167010923558 -0.6841009723867878 0.0
H H -0.061993960975673994 0.9563767010923561 -0.6714609723867878 0.0
C C -0.10254766556168878 0.8882254713543072 -0.7432857307672811 0.0
H H -0.0036376655616887467 0.8887854713543072 -0.7649457307672811 0.0
C C -0.2087577019394085 0.8361167800345186 -0.7519964650344809 0.0
C C -0.3474169081422247 0.8368207269996342 -0.7094257333948092 0.0
C C -0.39460030413328717 0.8692852217611483 -0.6648551085871957 0.0
H H -0.49221030413328726 0.8672552217611483 -0.6423251085871957 0.0
C C -0.5455089600791765 1.2890103031584244 -0.757718735478907 0.0
C C -0.7904616530402424 1.278325676501014 -0.6867601384287436 0.0
C C -0.5387000509192709 1.1673375191034296 -0.5502260429262861 0.0
H H -0.567110050919271 1.1646075191034295 -0.5020960429262863 0.0
C C -0.6040680062027456 1.202407333208777 -0.5767982302584185 0.0
H H -0.6748780062027457 1.2307773332087772 -0.5582582302584184 0.0
C C -0.5994853845466753 1.2155289886547267 -0.6653792796165451 0.0
C C -0.46362252097962253 1.1659282497831818 -0.684202215929384 0.0
H H -0.43531252097962253 1.166098249783182 -0.732362215929384 0.0
C C -0.4215263818253972 1.1315773868096766 -0.6294235400886012 0.0
H H -0.34803638182539715 1.1030473868096766 -0.6457835400886015 0.0
O O -0.2817737621695086 1.146771406661613 -0.41504645551694863 0.0
O O -0.10609005716322348 1.1202574122250886 -0.48217359049120506 0.0
O O 0.12475759089698946 0.8468946436973235 -0.25449149148452127 0.0
O O -0.3371495159565093 0.8821340965467817 -0.17805564111708988 0.0
N N -0.11275273752271789 0.8667981248935892 -0.24322475444936892 0.0
N N -0.23029911937597902 0.9953155925985279 -0.3899002973039396 0.0
C C -0.12766753345946938 1.1587690860435738 -0.4358161295178463 0.0
C C -0.03594195037971558 1.2076182411381007 -0.40077676390857353 0.0
C C 0.0750506380393353 1.2173876519213473 -0.4382302870878537 0.0
H H 0.10926063803933528 1.1926576519213474 -0.47549028708785374 0.0
C C -0.20869214863459934 0.7701858212446621 -0.08381862728641229 0.0
H H -0.30710214863459934 0.7790558212446621 -0.06407862728641232 0.0
C C -0.13187248833585116 0.8082579943887124 -0.13659604592537217 0.0
C C -0.005485003133118418 0.7949602613699566 -0.1774065081309633 0.0
C C -0.12238963804773001 1.249802947238422 -0.35268839238528976 0.0
H H -0.22287963804772998 1.2423729472384222 -0.3339483923852898 0.0
C C -0.22494832429397899 0.851932232373566 -0.18723682247424006 0.0
C C 0.021707865690329526 0.8343213185783028 -0.2348599938077883 0.0
C C -0.2562352369664404 1.00648516347372 -0.33696597706172254 0.0
H H -0.3117552369664404 1.0422551634737203 -0.3267359770617226 0.0
C C -0.21103783006608778 0.9728982019561723 -0.27977007708430973 0.0
H H -0.23934783006608779 0.9813682019561722 -0.23263007708430974 0.0
C C -0.13015697464792844 0.9146001840054608 -0.29506356192450645 0.0
C C -0.0923936269603649 0.9088342303965325 -0.3671495971598448 0.0
H H -0.03241362696036491 0.8744042303965328 -0.37900959715984484 0.0
C C -0.1420576287513839 0.9473559347571437 -0.4046327532695087 0.0
H H -0.11030762875138389 0.9407359347571437 -0.45171275326950866 0.0
Cd Cd -0.30934635261055493 -0.5598276891321909 -0.9835295784652072 0.0
O O -0.4412742669555091 -0.4631973441925451 -1.0570381671415774 0.0
O O -0.20244336495862122 -0.50902307788073 -1.0780355286875196 0.0
O O -0.8922527699538464 -0.776396860725753 -1.165129943677001 0.0
O O -0.38563888177774225 -0.7812367913407608 -1.2599206850484883 0.0
N N -0.44317172514655945 -0.6253319815907054 -1.0679054633636724 0.0
N N -0.631544745261907 -0.7497677092962796 -1.2013999433340108 0.0
C C -0.3005589774367535 -0.4614501703460045 -1.0916077733824232 0.0
C C -0.2647174004350431 -0.4180765422347723 -1.1510115863323966 0.0
C C -0.11218928478237614 -0.42528252635937425 -1.178125712753956 0.0
H H -0.03727928478237609 -0.4561425263593743 -1.165485712753956 0.0
C C -0.09941170605029369 -0.3868341869035145 -1.2297813317785367 0.0
H H -0.000501706050293661 -0.3873941869035145 -1.251441331778537 0.0
C C -0.21322325233474568 -0.3444826845112809 -1.2534623387649415 0.0
C C -0.3465652567261872 -0.34047878119991143 -1.2238456833014324 0.0
C C -0.4018642370211306 -0.3803121470395189 -1.1610640894582038 0.0
H H -0.4994742370211307 -0.37828214703951885 -1.138534089458204 0.0
C C -0.5411664989560463 -0.7828719675780982 -1.2528866563857826 0.0
C C -0.7768284162314064 -0.795021530227899 -1.1984355171068695 0.0
C C -0.5605432594373377 -0.6555725392448147 -1.0383707115426077 0.0
H H -0.5889532594373378 -0.6528425392448148 -0.9902407115426078 0.0
C C -0.6391955083566243 -0.7003538331250639 -1.0894319649329485 0.0
H H -0.7100055083566243 -0.7287238331250638 -1.0708919649329485 0.0
C C -0.5950523034777828 -0.7059540840168195 -1.147681395573695 0.0
C C -0.45809930998270126 -0.6650385142790942 -1.181707608871756 0.0
H H -0.4297893099827013 -0.6652085142790942 -1.229867608871756 0.0
C C -0.4356220238846812 -0.6232020387198173 -1.131016165102263 0.0
H H -0.36213202388468113 -0.5946720387198172 -1.147376165102263 0.0
O O -0.26711873840301253 -0.6346243544291555 -0.9006816876904722 0.0
O O -0.1102361485136894 -0.6226719887299101 -0.9908284571961584 0.0
O O 0.11740717654835967 -0.33023185288490964 -0.7769373016860149 0.0
O O -0.36462694398748935 -0.3710610428764791 -0.68430343221047 0.0
N N -0.12151186670141541 -0.3695861153034248 -0.7398533976370042 0.0
N N -0.22120919992437948 -0.4964434103095997 -0.8975177784925054 0.0
C C -0.12982744369575422 -0.647583643997387 -0.9438059302633943 0.0
C C -0.051421419167668556 -0.7110496574935181 -0.9139628421456097 0.0
C C 0.09368703700272236 -0.7264373006713929 -0.9446257248656349 0.0
H H 0.1278970370027224 -0.701707300671393 -0.9818857248656349 0.0
C C -0.1818179568120279 -0.27295256844823124 -0.5978585148123815 0.0
H H -0.2802279568120279 -0.2818225684482312 -0.5781185148123814 0.0
C C -0.14819511626112206 -0.29742291113806335 -0.6340496575546515 0.0
C C 0.01563921705292625 -0.2935028379780598 -0.6745648294530501 0.0
C C -0.0781387768258873 -0.7454005897565016 -0.8577606666451025 0.0
H H -0.17862877682588735 -0.7379705897565016 -0.8390206666451027 0.0
C C -0.21767396297871033 -0.35047475429139857 -0.6764392122734079 0.0
C C 0.04795209209173724 -0.33528640048828934 -0.7249769078284507 0.0
C C -0.27551835552433784 -0.5068395572326211 -0.8203073952061367 0.0
H H -0.3310383555243378 -0.5426095572326212 -0.8100773952061368 0.0
C C -0.2018545895889085 -0.4577099821109623 -0.7768952405525232 0.0
H H -0.23016458958890854 -0.4661799821109623 -0.7297552405525233 0.0
C C -0.15628544277830245 -0.40612586547185797 -0.7923657824549114 0.0
C C -0.09925647648515329 -0.3973974856242151 -0.8657675229526256 0.0
H H -0.039276476485153304 -0.36296748562421516 -0.8776275229526257 0.0
C C -0.12432303584829053 -0.4407123139530799 -0.9042520929874222 0.0
H H -0.0925730358482905 -0.4340923139530799 -0.9513320929874222 0.0
Cd Cd 0.3015788834320335 -1.059684542961241 0.4897508443974844 0.0
O O 0.4195184588484472 -0.9564225063964433 0.5632357071562117 0.0
O O 0.22730688565777557 -1.0008615755125296 0.5869945510745854 0.0
O O 0.9156337847842382 -1.2579342939798908 0.6634180466078888 0.0
O O 0.3887169404202418 -1.2714931642618021 0.7727759213864578 0.0
N N 0.4554070980621333 -1.1161623068801687 0.5691270202469667 0.0
N N 0.6268568770839056 -1.2572520705386898 0.7085845801141116 0.0
C C 0.31287531216450354 -0.9612510922797883 0.5976614271404339 0.0
C C 0.285403076869925 -0.9201039076313113 0.6393428178979335 0.0
C C 0.14888073071954716 -0.920354841999369 0.6714155172269278 0.0
H H 0.07397073071954714 -0.9512148419993692 0.6587755172269278 0.0
C C 0.10394809470360943 -0.8797827679403065 0.7435247035830127 0.0
H H 0.0050380947036094016 -0.8803427679403065 0.7651847035830127 0.0
C C 0.19613032631785593 -0.8440727584270725 0.7455769454274035 0.0
C C 0.33416468817815326 -0.8292402828922212 0.7096579408961151 0.0
C C 0.38432558078242046 -0.8729399109261026 0.6602605826231116 0.0
H H 0.4819355807824206 -0.8709099109261026 0.6377305826231116 0.0
C C 0.5704623384755344 -1.2801527365613898 0.7488950807652547 0.0
C C 0.7728116797318608 -1.277123378766917 0.6875149656882044 0.0
C C 0.5746054513510702 -1.1625444298102068 0.5428568951785185 0.0
H H 0.6030154513510704 -1.1598144298102067 0.4947268951785187 0.0
C C 0.6170028290494484 -1.2010772147135433 0.587735141387607 0.0
H H 0.6878128290494485 -1.2294472147135433 0.5691951413876069 0.0
C C 0.5821117480028815 -1.2051392061407096 0.6557034709614562 0.0
C C 0.4923793880707583 -1.1667837724082948 0.6876413396934175 0.0
H H 0.46406938807075826 -1.166953772408295 0.7358013396934173 0.0
C C 0.4021545466326959 -1.1204807257932234 0.6361937099018032 0.0
H H 0.3286645466326959 -1.0919507257932235 0.6525537099018034 0.0
O O 0.26035454231815486 -1.1409060610561417 0.41546025670035397 0.0
O O 0.07245969464572309 -1.1295585625922728 0.48721683846073005 0.0
O O -0.16110390548948064 -0.8332183090349596 0.25541290317247917 0.0
O O 0.33625728900092156 -0.8740611737108255 0.17432685628670472 0.0
N N 0.10679051492352898 -0.8684516475030847 0.24036104351823928 0.0
N N 0.2152741544199388 -0.9908948128643014 0.3893863076359806 0.0
C C 0.13734175195290624 -1.1556383131985166 0.43433473536396217 0.0
C C 0.03077388809179382 -1.2030803173759386 0.414314721933075 0.0
C C -0.07922747636824312 -1.2215619736830379 0.433618268242992 0.0
H H -0.11343747636824311 -1.196831973683038 0.470878268242992 0.0
C C 0.20265336024342062 -0.7727472203177111 0.09592945333131302 0.0
H H 0.3010633602434206 -0.7816172203177112 0.07618945333131304 0.0
C C 0.12703180578204956 -0.8032434498307534 0.14548381296662732 0.0
C C -0.01981794530861721 -0.7904889289904897 0.17043445665070897 0.0
C C 0.12498038116729496 -1.2460562778061184 0.35482133315656716 0.0
H H 0.2254703811672949 -1.2386262778061186 0.3360813331565672 0.0
C C 0.19858397443941225 -0.848255264986863 0.18868302667520684 0.0
C C -0.013206441517005839 -0.8311857030740647 0.22595359311186428 0.0
C C 0.27776804066209393 -0.9967714813505875 0.32619548764411566 0.0
H H 0.3332880406620939 -1.0325414813505875 0.31596548764411575 0.0
C C 0.21953223842916805 -0.9655263573432175 0.27851402135936826 0.0
H H 0.24784223842916805 -0.9739963573432174 0.23137402135936824 0.0
C C 0.1366546404606518 -0.9123564952341354 0.2826937256514175 0.0
C C 0.1037595744523616 -0.8981126944146266 0.367660757320441 0.0
H H 0.043779574452361615 -0.8636826944146266 0.37952075732044105 0.0
C C 0.14611044327533493 -0.9514721590331664 0.4031726697542359 0.0
H H 0.1143604432753349 -0.9448521590331663 0.4502526697542358 0.0
