_cell_length_a 8.39304
_cell_length_b 22.23511
_cell_length_c 18.74218
_cell_angle_alpha 90.0
_cell_angle_beta 94.0312
_cell_angle_gamma 90.0
_symmetry_space_group_name_H-M         'P 1'
_symmetry_Int_Tables_number            1
loop_
_symmetry_equiv_pos_as_xyz
   'x, y, z'
                         
loop_
_atom_site_label
_atom_site_type_symbol
_atom_site_fract_x 
_atom_site_fract_y
_atom_site_fract_z
_atom_site_charge
Cd Cd 0.3161193591852801 0.5528877383583285 0.9822104672950285 0.0
O O 0.44847775202411977 0.46473082904474083 1.0615650986338439 0.0
O O 0.20084329586133767 0.5018044430371202 1.0771292410612925 0.0
O O 0.8951601024059679 0.7684430187713335 1.1694385342457139 0.0
O O 0.4040776040612981 0.768849123561163 1.2684935181886734 0.0
N N 0.4531413554835961 0.6235211153423782 1.069041733258507 0.0
N N 0.621293812628865 0.7581558770217544 1.2025998891632192 0.0
C C 0.30353443617032216 0.4643458060167858 1.0864015170885624 0.0
C C 0.2574752811370138 0.42585183422932993 1.1464729490191365 0.0
C C 0.14500414062262823 0.4140577213755951 1.187087774779065 0.0
H H 0.07009414062262817 0.4449177213755951 1.1744477747790647 0.0
C C 0.10295764457722827 0.3896868778962008 1.2422062052897942 0.0
H H 0.004047644577228277 0.39024687789620083 1.2638662052897942 0.0
C C 0.19651161171424722 0.3365749279657282 1.2489944243528677 0.0
C C 0.3590904661147456 0.33658766605434925 1.2181292614411667 0.0
C C 0.3753690290912397 0.36972803866326437 1.1731832996662495 0.0
H H 0.4729790290912398 0.3676980386632644 1.1506532996662495 0.0
C C 0.5421543236895493 0.7933066919952703 1.2510424843268821 0.0
C C 0.7844658032680263 0.7803864258647558 1.1949204609159119 0.0
C C 0.5315048098365852 0.6629326888931598 1.0355557157274893 0.0
H H 0.5599148098365851 0.66020268889316 0.9874257157274894 0.0
C C 0.6198757465002933 0.7079434809466838 1.0766084128697628 0.0
H H 0.6906857465002934 0.7363134809466836 1.0580684128697628 0.0
C C 0.5753326176459558 0.7093702157270817 1.1484399224161976 0.0
C C 0.45936413975653584 0.6708336531611017 1.1870183247611994 0.0
H H 0.43105413975653584 0.6710036531611017 1.2351783247611994 0.0
C C 0.40466995526069316 0.6290433475048538 1.131543783430532 0.0
H H 0.33117995526069316 0.6005133475048537 1.1479037834305321 0.0
O O 0.2793496839520625 0.6410655612148456 0.9105052968665364 0.0
O O 0.10253322950873046 0.6259809508801016 0.9856150340787541 0.0
O O -0.12542686244651724 0.3289282588806598 0.7637963744941606 0.0
O O 0.3308209286894101 0.3665654326443241 0.6696772283815828 0.0
N N 0.09398515256408402 0.36381930773254567 0.7404009866882834 0.0
N N 0.2303322700772451 0.4997311651943249 0.9010965301568995 0.0
C C 0.12937320457091764 0.6590009486565335 0.9298650006698019 0.0
C C 0.028393026164316975 0.7028980146857291 0.9055353671652078 0.0
C C -0.10697217221029119 0.7153740940617649 0.9428324952448082 0.0
H H -0.1411821722102912 0.690644094061765 0.980092495244808 0.0
C C 0.1972027109623347 0.26730129890962484 0.5824043793422371 0.0
H H 0.29561271096233466 0.27617129890962483 0.562664379342237 0.0
C C 0.12359902790812938 0.29962040004679724 0.6388076365548548 0.0
C C -0.017916145488038018 0.29145716176804304 0.6784704842867403 0.0
C C 0.10255150651344962 0.7494672088542789 0.8457625350022233 0.0
H H 0.20304150651344965 0.7420372088542789 0.8270225350022233 0.0
C C 0.1950838688922265 0.3453858325956071 0.6874573812091469 0.0
C C -0.04065887170792773 0.3350847646249378 0.7216909547027989 0.0
C C 0.2560869967809209 0.49856997741766196 0.8242296621329266 0.0
H H 0.3116069967809209 0.5343399774176621 0.8139996621329265 0.0
C C 0.22560079622319246 0.47005970671235564 0.7699124300954494 0.0
H H 0.25391079622319246 0.4785297067123556 0.7227724300954494 0.0
C C 0.15111276022445963 0.40537508948997925 0.7933161074302889 0.0
C C 0.10078686602992291 0.4073090877268216 0.8680755684955874 0.0
H H 0.04080686602992294 0.37287908772682166 0.8799355684955875 0.0
C C 0.15524950625772754 0.44214010724147107 0.9056166675737468 0.0
H H 0.12349950625772753 0.435520107241471 0.9526966675737468 0.0
Cd Cd -0.32553908958742317 1.0616788111651434 -0.48725686901970183 0.0
O O -0.43993171727224817 0.9590993415252973 -0.5630117693893272 0.0
O O -0.2139758375355633 1.0067178613322325 -0.5856260209747384 0.0
O O -0.8949875245943311 1.276385323685281 -0.6486313993409568 0.0
O O -0.41897459839246887 1.2587300117006135 -0.7628661492412891 0.0
N N -0.46685627808650276 1.1219019492533089 -0.5629121540210594 0.0
N N -0.6188059878981854 1.2548006219571226 -0.696904535052389 0.0
C C -0.288738765209205 0.9703268769033592 -0.5876442529990448 0.0
C C -0.2813361989722867 0.925446717739287 -0.6425682048695343 0.0
C C -0.1375985827070821 0.9147177171541443 -0.6736331137010511 0.0
H H -0.06268858270708212 0.9455777171541444 -0.6609931137010511 0.0
C C -0.10957207535672064 0.885506169827882 -0.7224931123093156 0.0
H H -0.01066207535672062 0.886066169827882 -0.7441531123093156 0.0
C C -0.23138558238201903 0.8326258511742386 -0.7458158761747012 0.0
C C -0.36515337378528717 0.8426061341382257 -0.7138752635416888 0.0
C C -0.38933433370553666 0.880619553356789 -0.6701589053517424 0.0
H H -0.48694433370553675 0.878589553356789 -0.6476289053517424 0.0
C C -0.5710587258471066 1.2867168973515775 -0.7429506175222207 0.0
C C -0.7954833847480179 1.2905186735240466 -0.7029627113891213 0.0
C C -0.5717864825828063 1.1677794787912907 -0.5412305842104465 0.0
H H -0.6001964825828064 1.1650494787912906 -0.4931005842104466 0.0
C C -0.6043683657495489 1.2088448597473467 -0.5911532648931095 0.0
H H -0.6751783657495489 1.2372148597473467 -0.5726132648931095 0.0
C C -0.5903273678475262 1.2108087277180983 -0.6644128844794547 0.0
C C -0.47259230941086794 1.1606337577662444 -0.682760435266841 0.0
H H -0.4442823094108679 1.1608037577662447 -0.7309204352668409 0.0
C C -0.4231873048934042 1.1187810864396217 -0.6310636823761772 0.0
H H -0.3496973048934042 1.0902510864396215 -0.6474236823761774 0.0
O O -0.2879794432354321 1.1442791811846291 -0.41332675357578486 0.0
O O -0.09074768985624326 1.1296864351741385 -0.48947389369695193 0.0
O O 0.1268368490319519 0.8320498640873389 -0.26119826719199946 0.0
O O -0.3479245632795958 0.8842831078180552 -0.17522704830969385 0.0
N N -0.09534845470413858 0.8647512481504211 -0.2398695240981038 0.0
N N -0.2410637847485232 0.9897634232714629 -0.39353973586309077 0.0
C C -0.14363214518877965 1.1523073101194723 -0.43458357506870154 0.0
C C -0.048462854193425546 1.2088865197234127 -0.4058128900056514 0.0
C C 0.08094865900691545 1.2259111021695208 -0.44475067997328077 0.0
H H 0.11515865900691544 1.2011811021695207 -0.4820106799732808 0.0
C C -0.2060719725808267 0.7753601102908497 -0.0965326531527606 0.0
H H -0.30448197258082665 0.7842301102908498 -0.07679265315276064 0.0
C C -0.12867848348593916 0.8053696422210143 -0.14120806354133708 0.0
C C 0.0024341981591384197 0.7953938001175852 -0.1645253697733553 0.0
C C -0.10790081423160196 1.2405337633663576 -0.34673689296347754 0.0
H H -0.20839081423160197 1.2331037633663577 -0.32799689296347756 0.0
C C -0.2022247734623872 0.845573650970039 -0.19148895508560376 0.0
C C 0.03482859447933865 0.8322674746771408 -0.21899911584821286 0.0
C C -0.26105495726612304 1.0108216199763709 -0.3364728000141317 0.0
H H -0.316574957266123 1.046591619976371 -0.32624280001413175 0.0
C C -0.20565584223681949 0.9601049120042586 -0.2777749659924718 0.0
H H -0.2339658422368195 0.9685749120042586 -0.23063496599247185 0.0
C C -0.13956248551055486 0.9070131332759982 -0.27987696773935117 0.0
C C -0.10875995878443998 0.9056249935747547 -0.3599881327292678 0.0
H H -0.04877995878443998 0.8711949935747547 -0.3718481327292678 0.0
C C -0.12789950497818084 0.9437886704728091 -0.4001979735437487 0.0
H H -0.09614950497818084 0.9371686704728092 -0.4472779735437486 0.0
Cd Cd -0.29657374704447714 -0.5587426046872468 -0.9823570436664072 0.0
O O -0.4459859973591569 -0.4535151791209136 -1.0512174263840524 0.0
O O -0.2218162559415547 -0.5048561591606336 -1.0778270649654564 0.0
O O -0.8747914031686537 -0.7816949076650423 -1.1581681801346242 0.0
O O -0.4013268577131246 -0.7775755350609298 -1.2491689700813757 0.0
N N -0.4532226031439199 -0.6178544567377204 -1.0606180101664229 0.0
N N -0.6307668529675363 -0.7527001316238051 -1.2095566108070324 0.0
C C -0.30783563150035037 -0.46842802252391685 -1.094742291514016 0.0
C C -0.2825597448117184 -0.4167245793787531 -1.1547206218765533 0.0
C C -0.11472233548128093 -0.4197004558197875 -1.1756985272655645 0.0
H H -0.039812335481280894 -0.45056045581978754 -1.1630585272655645 0.0
C C -0.09992277704906584 -0.37510280745923424 -1.2340583288975158 0.0
H H -0.0010127770490658084 -0.37566280745923425 -1.2557183288975158 0.0
C C -0.22896486304229244 -0.3291444105937633 -1.2587922926756607 0.0
C C -0.3371980952554323 -0.33126584533559383 -1.2131921221308584 0.0
C C -0.38610858037758067 -0.3722334775689758 -1.1709422485116736 0.0
H H -0.48371858037758075 -0.37020347756897576 -1.1484122485116737 0.0
C C -0.5255809339306792 -0.7789434839639339 -1.2445721898855666 0.0
C C -0.7858715085537981 -0.7830956756723212 -1.1868776661898248 0.0
C C -0.5476673703944809 -0.6587004285983902 -1.0440908884706148 0.0
H H -0.5760773703944809 -0.6559704285983903 -0.9959608884706149 0.0
C C -0.6393746679238658 -0.7000265780427255 -1.0916259179309677 0.0
H H -0.7101846679238657 -0.7283965780427254 -1.0730859179309677 0.0
C C -0.5848703440135676 -0.7100445668217877 -1.1482640427619664 0.0
C C -0.46121359305981224 -0.6663165853688243 -1.173601759909244 0.0
H H -0.43290359305981224 -0.6664865853688243 -1.221761759909244 0.0
C C -0.40060185539463544 -0.63243210186065 -1.131415563463269 0.0
H H -0.32711185539463544 -0.6039021018606501 -1.147775563463269 0.0
O O -0.2611795940355798 -0.6417105197611147 -0.9082687723950482 0.0
O O -0.08277027216103197 -0.6168280801112149 -0.9851476241699562 0.0
O O 0.13584708622793756 -0.34008453361389723 -0.7676004820445107 0.0
O O -0.34601318993978486 -0.38397026951048896 -0.6827699951011347 0.0
N N -0.11100685345514504 -0.37137568555067807 -0.7381006794220594 0.0
N N -0.21225340115106178 -0.4975511665820391 -0.9004161977623784 0.0
C C -0.16132915652545912 -0.6474504726147539 -0.9412487546221443 0.0
C C -0.05474812649413917 -0.7008043837959418 -0.9000923008446268 0.0
C C 0.0845655375859148 -0.712843359155297 -0.9385188457745901 0.0
H H 0.11877553758591484 -0.688113359155297 -0.97577884577459 0.0
C C -0.19036795287017805 -0.26040646840838566 -0.5851431951063215 0.0
H H -0.28877795287017805 -0.26927646840838565 -0.5654031951063215 0.0
C C -0.15672131865289096 -0.29874015616722666 -0.6350706650553002 0.0
C C -0.00883382804174244 -0.29455887988755325 -0.6756554936073488 0.0
C C -0.11921882359225926 -0.7377723155358127 -0.8600288046958527 0.0
H H -0.2197088235922593 -0.7303423155358126 -0.8412888046958528 0.0
C C -0.1925658145670419 -0.35678511345065145 -0.6772373181010186 0.0
C C 0.046689618143989836 -0.3261263577197849 -0.7260983577576886 0.0
C C -0.2642197176276173 -0.5005606497311071 -0.8272807300574364 0.0
H H -0.3197397176276173 -0.5363306497311072 -0.8170507300574364 0.0
C C -0.24277953336487387 -0.46064227462975765 -0.779625137136973 0.0
H H -0.27108953336487385 -0.46911227462975763 -0.732485137136973 0.0
C C -0.14213541552085493 -0.41753331841004754 -0.7911593079143875 0.0
C C -0.1068309132182535 -0.40735341058467517 -0.8597326789651035 0.0
H H -0.04685091321825351 -0.37292341058467515 -0.8715926789651036 0.0
C C -0.12696254930501258 -0.4509357359711325 -0.9001599308784495 0.0
H H -0.09521254930501256 -0.44431573597113244 -0.9472399308784495 0.0
Cd Cd 0.3095201223367434 -1.0580026467545438 0.48505135178560227 0.0
O O 0.42988935770678677 -0.9554659197208564 0.5481199703424676 0.0
O O 0.19484008581760887 -1.0012892146524077 0.5728389588427137 0.0
O O 0.8983183630717747 -1.269980474786081 0.6518673607854413 0.0
O O 0.43407477064399674 -1.2753707326504622 0.7542915328173422 0.0
N N 0.47131086110602743 -1.1252032266597962 0.5665359641789793 0.0
N N 0.6245590853887624 -1.258424838825823 0.699727370969448 0.0
C C 0.2874226933477024 -0.9673652062052136 0.5835082728444968 0.0
C C 0.26398128537603965 -0.9140926673918109 0.6530553139016356 0.0
C C 0.11923527162173803 -0.9260025049997807 0.6858061238114591 0.0
H H 0.04432527162173803 -0.9568625049997808 0.6731661238114591 0.0
C C 0.10282610991789662 -0.8822208423480908 0.7275343690643977 0.0
H H 0.003916109917896599 -0.8827808423480908 0.7491943690643976 0.0
C C 0.21853199889937197 -0.8441329716047057 0.7525652061558317 0.0
C C 0.3323523087596641 -0.8360669071235537 0.7126197509002175 0.0
C C 0.3730784774803716 -0.8719249754403962 0.6706232287275716 0.0
H H 0.4706884774803717 -0.8698949754403962 0.6480932287275717 0.0
C C 0.5328405909634175 -1.2923022390868304 0.7576900550782701 0.0
C C 0.7819651431756325 -1.2956086572599534 0.6878883177287036 0.0
C C 0.5547732676102343 -1.160596561370613 0.5378006748645399 0.0
H H 0.5831832676102345 -1.157866561370613 0.48967067486453997 0.0
C C 0.615422184434027 -1.2032346165911396 0.5849376656391164 0.0
H H 0.6862321844340271 -1.2316046165911396 0.5663976656391164 0.0
C C 0.5830728999282337 -1.20753067180802 0.6538031704245779 0.0
C C 0.47219255349673306 -1.1705845131761887 0.687351427166803 0.0
H H 0.443882553496733 -1.1707545131761887 0.735511427166803 0.0
C C 0.42961866916347224 -1.1212623847543253 0.6312126054748085 0.0
H H 0.3561286691634722 -1.0927323847543253 0.6475726054748087 0.0
O O 0.27140975257392536 -1.1388060919106051 0.4012098083907057 0.0
O O 0.08250315702410359 -1.1180329780345586 0.47893170190866935 0.0
O O -0.12081404080640792 -0.8427253415886091 0.2739170319971951 0.0
O O 0.33024843017981653 -0.8694009587842534 0.16323354143666283 0.0
N N 0.11889201132706145 -0.8664878585188113 0.23951477592505946 0.0
N N 0.21574230982683207 -0.9927749237611074 0.39887723740617653 0.0
C C 0.13316624908487668 -1.1506271056041073 0.4375297994826939 0.0
C C 0.0464938243975509 -1.213438965375055 0.4118408172958874 0.0
C C -0.08359138652433083 -1.2193003161840956 0.4294181425377308 0.0
H H -0.1178013865243308 -1.1945703161840957 0.46667814253773077 0.0
C C 0.20263425818839848 -0.7700952839409552 0.08741494948153797 0.0
H H 0.3010442581883985 -0.7789652839409552 0.06767494948153799 0.0
C C 0.12094379262162254 -0.7985191735568035 0.1394982158456234 0.0
C C -0.0263306428945206 -0.7914876188853246 0.16610660464603075 0.0
C C 0.12018158739809938 -1.2387073073252108 0.35387437759704005 0.0
H H 0.22067158739809936 -1.2312773073252108 0.33513437759704007 0.0
C C 0.22646239461922527 -0.8474929808447834 0.17591364593815567 0.0
C C -0.04271763665340745 -0.8258478153453216 0.22385891090410137 0.0
C C 0.24728385057615937 -1.0061907899379376 0.3385740197624314 0.0
H H 0.3028038505761594 -1.0419607899379377 0.3283440197624315 0.0
C C 0.21854716191791715 -0.9572217680384215 0.2674745837861671 0.0
H H 0.24685716191791715 -0.9656917680384215 0.22033458378616713 0.0
C C 0.14883074920195893 -0.9094724388495491 0.2818557479734917 0.0
C C 0.09838739142772257 -0.9086316271853634 0.3546194776872589 0.0
H H 0.03840739142772258 -0.8742016271853634 0.36647947768725886 0.0
C C 0.15255159636350127 -0.9499394672865766 0.41553108421158114 0.0
H H 0.12080159636350127 -0.9433194672865766 0.4626110842115811 0.0
