_cell_length_a 8.39304
_cell_length_b 22.23511
_cell_length_c 18.74218
_cell_angle_alpha 90.0
_cell_angle_beta 94.0312
_cell_angle_gamma 90.0
_symmetry_space_group_name_H-M         'P 1'
_symmetry_Int_Tables_number            1
loop_
_symmetry_equiv_pos_as_xyz
   'x, y, z'
                         
loop_
_atom_site_label
_atom_site_type_symbol
_atom_site_fract_x 
_atom_site_fract_y
_atom_site_fract_z
_atom_site_charge
Cd Cd 0.3256000395016558 0.561787141845792 0.9875014752761423 0.0
O O 0.43026027024931573 0.46063312523494987 1.0504566132369288 0.0
O O 0.19763534533390711 0.500556039817098 1.072720133357219 0.0
O O 0.9058411511942868 0.7608684970700311 1.1653624118367774 0.0
O O 0.40241461275462387 0.7767858347414213 1.2681216172757857 0.0
N N 0.4514666075805743 0.6248361703189143 1.0651020647048017 0.0
N N 0.6454367818253465 0.7561047595042 1.1968752715807072 0.0
C C 0.3122008021884289 0.46964795905689627 1.083817073763695 0.0
C C 0.2911224305883575 0.4182190012132305 1.143085921268098 0.0
C C 0.142757736924854 0.42993019719082975 1.1852557812696212 0.0
H H 0.06784773692485396 0.4607901971908298 1.172615781269621 0.0
C C 0.08501578012858838 0.3765306760961462 1.2343541695770428 0.0
H H -0.013894219871411657 0.3770906760961462 1.256014169577043 0.0
C C 0.19711922623989947 0.3302536181887168 1.2448661547498923 0.0
C C 0.3694981047631725 0.3426337218075765 1.2139061406459266 0.0
C C 0.40586411285364166 0.37095820841418814 1.1576342469480985 0.0
H H 0.5034741128536417 0.36892820841418816 1.1351042469480985 0.0
C C 0.5267511333289475 0.7786106873348295 1.2603798095139913 0.0
C C 0.8040532941608033 0.7868262452340554 1.1894859111159484 0.0
C C 0.5503338349790626 0.6673781235900266 1.045449669246561 0.0
H H 0.5787438349790627 0.6646481235900267 0.997319669246561 0.0
C C 0.6079645979986715 0.6999453099725463 1.0868205314376291 0.0
H H 0.6787745979986716 0.7283153099725462 1.0682805314376291 0.0
C C 0.5998198650870359 0.7091783782014067 1.1607563788038777 0.0
C C 0.4950459107692374 0.6734932112709452 1.1845410065182256 0.0
H H 0.4667359107692374 0.6736632112709452 1.2327010065182258 0.0
C C 0.4313345347524866 0.6298809302434379 1.1396876324464993 0.0
H H 0.35784453475248656 0.601350930243438 1.1560476324464992 0.0
O O 0.28588523748430483 0.63482148510257 0.9028226833817925 0.0
O O 0.07119952084094061 0.6292328795174534 0.9785878544730277 0.0
O O -0.15769597669573623 0.34812202452989527 0.771218257529839 0.0
O O 0.3562214921647164 0.3768236489353422 0.6671237521379643 0.0
N N 0.09121572269330147 0.3758061753793223 0.7298044449089242 0.0
N N 0.2194155038913549 0.4936221241769582 0.8897498927687642 0.0
C C 0.13794458951744917 0.6566143059357552 0.9404727738661641 0.0
C C 0.05061415981232451 0.713356479488427 0.9032348766441807 0.0
C C -0.1059425344017518 0.719257821394843 0.9276936746883346 0.0
H H -0.14015253440175182 0.694527821394843 0.9649536746883346 0.0
C C 0.19085023384705738 0.27084210380428536 0.5954950967390952 0.0
H H 0.28926023384705735 0.27971210380428535 0.5757550967390952 0.0
C C 0.15251537699879783 0.29843229193084725 0.6352787864222013 0.0
C C -0.021342213609965084 0.2819906210653024 0.661214209936671 0.0
C C 0.08069003025168853 0.7454438748769321 0.8525265807886441 0.0
H H 0.18118003025168858 0.7380138748769322 0.8337865807886441 0.0
C C 0.23452644490464608 0.3601089312594167 0.6763794985041285 0.0
C C -0.04429695175531383 0.33911889986465665 0.7199794129313488 0.0
C C 0.2767904665271613 0.5020071297862445 0.8379754005990258 0.0
H H 0.33231046652716134 0.5377771297862447 0.8277454005990257 0.0
C C 0.20768809525379497 0.4721478354121691 0.781075487551724 0.0
H H 0.23599809525379498 0.48061783541216907 0.733935487551724 0.0
C C 0.13440913140185354 0.40736571765766116 0.7899864953731346 0.0
C C 0.09657329812633506 0.39903715020224184 0.865647092439307 0.0
H H 0.03659329812633508 0.3646071502022419 0.8775070924393071 0.0
C C 0.1310743476032243 0.44892371124965824 0.9061865951064092 0.0
H H 0.0993243476032243 0.4423037112496582 0.9532665951064092 0.0
Cd Cd -0.3206496310540757 1.0604280741861416 -0.49325766022526296 0.0
O O -0.41553339076422935 0.9539453102150953 -0.5555587280890744 0.0
O O -0.22312753913061642 1.00632745786746 -0.5835863212444095 0.0
O O -0.9012173288995111 1.2581994961385046 -0.6478558096785915 0.0
O O -0.3918959828791075 1.2675491767252398 -0.7480446557454203 0.0
N N -0.46024923477997953 1.1159474215505423 -0.5625964790382391 0.0
N N -0.6402650867271464 1.251053279952722 -0.69554710100649 0.0
C C -0.3245238169132998 0.9706044471519244 -0.5929516781486658 0.0
C C -0.28465694496005517 0.9193314880114685 -0.6403025728114586 0.0
C C -0.1226088100132819 0.930390121075763 -0.6831961610750505 0.0
H H -0.047698810013281905 0.9612501210757632 -0.6705561610750506 0.0
C C -0.09130055382006556 0.8723140331954327 -0.7311079901473257 0.0
H H 0.007609446179934443 0.8728740331954327 -0.7527679901473258 0.0
C C -0.21660156461081212 0.8411324891465952 -0.7542593801626257 0.0
C C -0.3433231568944122 0.8307562817603904 -0.715198857215538 0.0
C C -0.3971418447939474 0.8801377909714961 -0.6713440805805206 0.0
H H -0.4947518447939475 0.8781077909714962 -0.6488140805805207 0.0
C C -0.55694805911886 1.2798425185487667 -0.7504675330709083 0.0
C C -0.7705539501500027 1.2790621131124833 -0.6954173128892256 0.0
C C -0.578219155055108 1.165295311491874 -0.5506159841726774 0.0
H H -0.6066291550551082 1.162565311491874 -0.5024859841726775 0.0
C C -0.6069213220289534 1.2011335713266327 -0.5851749363156661 0.0
H H -0.6777313220289536 1.2295035713266327 -0.566634936315666 0.0
C C -0.5725938050525403 1.215883636815481 -0.6542839065724418 0.0
C C -0.4597044503389457 1.1750280954810468 -0.6861798116400559 0.0
H H -0.43139445033894563 1.1751980954810468 -0.7343398116400558 0.0
C C -0.4144521494176671 1.1214639417242023 -0.6344245116827342 0.0
H H -0.3409621494176671 1.0929339417242023 -0.6507845116827344 0.0
O O -0.2682029496996976 1.1434660649110175 -0.41394301200196987 0.0
O O -0.08179640657415264 1.1271828952301917 -0.47857450563984977 0.0
O O 0.14394574021514436 0.831890825300163 -0.2552705975667343 0.0
O O -0.3478349276864756 0.8704106932288267 -0.16515402534153015 0.0
N N -0.11066389654455965 0.8727631653717334 -0.23727471449063225 0.0
N N -0.20892422521490722 0.9910864732117153 -0.3938888164116048 0.0
C C -0.13639708299094921 1.148232183984547 -0.43924201796597295 0.0
C C -0.05991050330435155 1.2102900435822224 -0.40147626800935726 0.0
C C 0.11320276547693196 1.2171492223532538 -0.4437164200404765 0.0
H H 0.14741276547693197 1.192419222353254 -0.48097642004047647 0.0
C C -0.2066249213803929 0.7616456232374054 -0.08743240567280541 0.0
H H -0.3050349213803929 0.7705156232374055 -0.06769240567280543 0.0
C C -0.16108865867521227 0.8069069120007014 -0.14871724900449637 0.0
C C -0.013954425538777463 0.7941831138130733 -0.16445462051313967 0.0
C C -0.1080387773834891 1.238563387541772 -0.35544950730677316 0.0
H H -0.2085287773834891 1.2311333875417723 -0.3367095073067732 0.0
C C -0.22514831382777292 0.8467144947040558 -0.19223956188050959 0.0
C C 0.04376275498938646 0.8298746228006516 -0.22685783010709568 0.0
C C -0.2506167443257538 1.0044635881351507 -0.33844481979500163 0.0
H H -0.3061367443257538 1.0402335881351508 -0.3282148197950017 0.0
C C -0.21979172012019452 0.9692900351805878 -0.274763078382464 0.0
H H -0.24810172012019455 0.9777600351805877 -0.22762307838246404 0.0
C C -0.13852665908388484 0.9065668591018644 -0.2828077323272476 0.0
C C -0.10124538256036283 0.9068085592136942 -0.3577149142677693 0.0
H H -0.041265382560362836 0.8723785592136942 -0.36957491426776934 0.0
C C -0.1240650700460405 0.948257481612681 -0.4091680638179044 0.0
H H -0.09231507004604048 0.941637481612681 -0.45624806381790434 0.0
Cd Cd -0.30241792295278824 -0.5616303390374868 -0.9832097436828057 0.0
O O -0.4334742033641898 -0.46547551883321686 -1.0593427831127322 0.0
O O -0.22047696352039753 -0.5104546547666072 -1.074281541094491 0.0
O O -0.8894021656116192 -0.7725428969751512 -1.1729473778719752 0.0
O O -0.4183397196958796 -0.7583869536547059 -1.2616721133880453 0.0
N N -0.46058540885928895 -0.6246244441379774 -1.0594791734062698 0.0
N N -0.6412166502581428 -0.7569038707137717 -1.1935897310654686 0.0
C C -0.30474184448655645 -0.46287562989742403 -1.0962809817050567 0.0
C C -0.291725067392626 -0.42455949220787953 -1.1392374549517317 0.0
C C -0.12956626416835998 -0.42271059023341406 -1.1883673014831255 0.0
H H -0.05465626416835994 -0.4535705902334141 -1.1757273014831255 0.0
C C -0.09638825133689115 -0.3733416745731925 -1.2366751916546153 0.0
H H 0.0025217486631088763 -0.3739016745731925 -1.2583351916546155 0.0
C C -0.23005281986916212 -0.3451141203422795 -1.2472309737017855 0.0
C C -0.3701822192427825 -0.3395679016196736 -1.2144950728150283 0.0
C C -0.39126431633811515 -0.37532699858445334 -1.1692671954651528 0.0
H H -0.4888743163381153 -0.3732969985844533 -1.1467371954651526 0.0
C C -0.5436532904170968 -0.7868922368340916 -1.2474488902626042 0.0
C C -0.7749106563812285 -0.7843573535126374 -1.2074655842219606 0.0
C C -0.5338347732864985 -0.6606645632173654 -1.0487669652071407 0.0
H H -0.5622447732864986 -0.6579345632173657 -1.000636965207141 0.0
C C -0.6366847958401327 -0.7067500887030959 -1.088846972214646 0.0
H H -0.7074947958401328 -0.7351200887030958 -1.070306972214646 0.0
C C -0.5750255080557458 -0.7165801662256317 -1.147735592909215 0.0
C C -0.4988563128295861 -0.6604230821541478 -1.187691360410441 0.0
H H -0.47054631282958614 -0.6605930821541478 -1.2358513604104413 0.0
C C -0.4346044990862842 -0.6243624800648736 -1.1253634673061288 0.0
H H -0.3611144990862841 -0.5958324800648737 -1.1417234673061287 0.0
O O -0.2553930904981325 -0.6433136928296876 -0.9007175636719267 0.0
O O -0.10226026388490725 -0.6220284958432091 -0.9831297382427225 0.0
O O 0.1385649773034644 -0.34387356846958 -0.7713966154332597 0.0
O O -0.35796229760706166 -0.38575218906868153 -0.6697976645711089 0.0
N N -0.09634944998985147 -0.3738145530468419 -0.7369445231687428 0.0
N N -0.2193593232357467 -0.4949551079875473 -0.9028393435225145 0.0
C C -0.12529644164658965 -0.6503370280226316 -0.9370848226405835 0.0
C C -0.04267933694605236 -0.7034299227541692 -0.8995971965152973 0.0
C C 0.07985298618140824 -0.7255256800265082 -0.9329591145093682 0.0
H H 0.1140629861814083 -0.7007956800265082 -0.9702191145093682 0.0
C C -0.18811804517476136 -0.2625159471609558 -0.5960676591886652 0.0
H H -0.2865280451747613 -0.27138594716095576 -0.5763276591886652 0.0
C C -0.12917788974086694 -0.2979970367584442 -0.6412498098517581 0.0
C C 0.01781954762249841 -0.29184876638190965 -0.6795228656602937 0.0
C C -0.1087017462555508 -0.7464123991858063 -0.8551059827301899 0.0
H H -0.20919174625555084 -0.7389823991858062 -0.8363659827301899 0.0
C C -0.20726543388072557 -0.3526505904493953 -0.6834287959180999 0.0
C C 0.028022958133851146 -0.33654511715266905 -0.7224597957726274 0.0
C C -0.2573882438891801 -0.5053144241419955 -0.8223621624038453 0.0
H H -0.31290824388918004 -0.5410844241419956 -0.8121321624038453 0.0
C C -0.23916366747882242 -0.464452208528074 -0.7735535430844107 0.0
H H -0.26747366747882245 -0.472922208528074 -0.7264135430844109 0.0
C C -0.14310705976867505 -0.4198037300983434 -0.7870148432436123 0.0
C C -0.09416949446448646 -0.3993935117524212 -0.8475397419399952 0.0
H H -0.03418949446448647 -0.3649635117524212 -0.8593997419399954 0.0
C C -0.13980921631808754 -0.4465029571509187 -0.9049069904063043 0.0
H H -0.10805921631808751 -0.43988295715091863 -0.9519869904063043 0.0
Cd Cd 0.31862684810625597 -1.0563470613746537 0.4931120297343153 0.0
O O 0.4116685876856837 -0.9540125655089129 0.5523720455839753 0.0
O O 0.18986626715234287 -1.0058022098453727 0.5805560951126699 0.0
O O 0.9011238846375423 -1.268223099318956 0.6735687261929987 0.0
O O 0.4428541873182434 -1.2652943593756474 0.7597344988142576 0.0
N N 0.47178747323169495 -1.1249432081481086 0.5703461055161674 0.0
N N 0.6305560375111958 -1.2529530240655276 0.7092841849375024 0.0
C C 0.32214541760763976 -0.9661418529992509 0.5877934652277877 0.0
C C 0.27880841800227246 -0.9261722698811584 0.6502040947976885 0.0
C C 0.11459372212474105 -0.9281026507425746 0.6900107920723056 0.0
H H 0.039683722124741055 -0.9589626507425747 0.6773707920723057 0.0
C C 0.10927027913448936 -0.8711145029353904 0.7369254469938195 0.0
H H 0.01036027913448935 -0.8716745029353902 0.7585854469938195 0.0
C C 0.23009743982479627 -0.8385855070352827 0.743762220863928 0.0
C C 0.3675845128112328 -0.831996426095968 0.7134524829807941 0.0
C C 0.4086602679634316 -0.8735806096772785 0.6568589455882887 0.0
H H 0.5062702679634317 -0.8715506096772785 0.6343289455882888 0.0
C C 0.562150268492194 -1.2776340722394235 0.7556148626038405 0.0
C C 0.7714364319727632 -1.2852435324624003 0.7067765811956763 0.0
C C 0.5391212869689674 -1.1632709238660734 0.537068384295921 0.0
H H 0.5675312869689675 -1.1605409238660733 0.4889383842959211 0.0
C C 0.637333088901387 -1.208344606275172 0.5860362400713522 0.0
H H 0.7081430889013871 -1.236714606275172 0.5674962400713521 0.0
C C 0.5683486657132983 -1.215546109913592 0.6571217745987514 0.0
C C 0.5021193057269082 -1.1742155525622873 0.6807937246255992 0.0
H H 0.47380930572690816 -1.1743855525622873 0.7289537246255992 0.0
C C 0.4007856196891618 -1.1295105782354753 0.6252197628591409 0.0
H H 0.32729561968916177 -1.1009805782354753 0.6415797628591412 0.0
O O 0.2766167549299214 -1.1349337573280869 0.4101674507688974 0.0
O O 0.10532340418354377 -1.1166635625968677 0.4831490401543989 0.0
O O -0.14638019533571445 -0.8417512568053337 0.26177189654542093 0.0
O O 0.34445650226476593 -0.8727320083371202 0.17253072337927405 0.0
N N 0.09505567951938597 -0.8637846633928595 0.2298548472614982 0.0
N N 0.2125759581288643 -1.0002989724479823 0.38967623338832746 0.0
C C 0.13334174472292454 -1.1521686403741638 0.4296843625202703 0.0
C C 0.03435021436358387 -1.2089568169496054 0.40231170733335575 0.0
C C -0.10054434289715765 -1.2237326035578286 0.435670335492125 0.0
H H -0.13475434289715763 -1.1990026035578287 0.472930335492125 0.0
C C 0.1965451375036588 -0.7726732023108495 0.0872669213347224 0.0
H H 0.29495513750365876 -0.7815432023108495 0.06752692133472243 0.0
C C 0.11917887414614274 -0.7947852061376249 0.1486088352049303 0.0
C C 0.004139825418456738 -0.7937818577222944 0.16242893395901858 0.0
C C 0.11464948992552129 -1.2352418578522197 0.3609646491430585 0.0
H H 0.2151394899255213 -1.22781185785222 0.3422246491430585 0.0
C C 0.239261817768436 -0.843795604580852 0.19175367850513392 0.0
C C -0.017603632715634747 -0.8255049954952418 0.23051307642183355 0.0
C C 0.25086629762074153 -0.998938906040553 0.33733854961008547 0.0
H H 0.3063862976207415 -1.0347089060405532 0.3271085496100855 0.0
C C 0.23181976793892323 -0.9707186329649952 0.27063537212634226 0.0
H H 0.26012976793892323 -0.9791886329649951 0.2234953721263423 0.0
C C 0.13390281901296225 -0.9107722031881585 0.29541771203109163 0.0
C C 0.10293030562200779 -0.9069764640841003 0.36075518837873705 0.0
H H 0.0429503056220078 -0.8725464640841003 0.3726151883787371 0.0
C C 0.153642498460052 -0.9391013729301664 0.4081851694319504 0.0
H H 0.12189249846005201 -0.9324813729301663 0.45526516943195033 0.0
