_cell_length_a 8.39304
_cell_length_b 22.23511
_cell_length_c 18.74218
_cell_angle_alpha 90.0
_cell_angle_beta 94.0312
_cell_angle_gamma 90.0
_symmetry_space_group_name_H-M         'P 1'
_symmetry_Int_Tables_number            1
loop_
_symmetry_equiv_pos_as_xyz
   'x, y, z'
                         
loop_
_atom_site_label
_atom_site_type_symbol
_atom_site_fract_x 
_atom_site_fract_y
_atom_site_fract_z
_atom_site_charge
Cd Cd 0.3002101028571309 0.5521097681227047 0.9827607819153935 0.0
O O 0.41888695568660356 0.4644255992885179 1.0604237285874922 0.0
O O 0.2027515933439558 0.5011564636681192 1.0828514930723012 0.0
O O 0.8859097871223534 0.7739476429977233 1.146793368276232 0.0
O O 0.39407496632208844 0.7835637759815376 1.2650668436961212 0.0
N N 0.45388127682580226 0.6255654619543984 1.0637788771364376 0.0
N N 0.6395755514777802 0.7534796574882492 1.2013381261464824 0.0
C C 0.3115339713640229 0.46256651800394655 1.082913586841184 0.0
C C 0.2770779607127629 0.4213195532092665 1.148388955481761 0.0
C C 0.11572724736231814 0.413782399971089 1.1757932903085795 0.0
H H 0.04081724736231807 0.444642399971089 1.1631532903085795 0.0
C C 0.09599681170542927 0.37445923454561575 1.2212904845846064 0.0
H H -0.002913188294570741 0.37501923454561575 1.2429504845846064 0.0
C C 0.19166639273107905 0.33701320650004807 1.2592052420112754 0.0
C C 0.3669846836597502 0.3363950192779997 1.2215868284133946 0.0
C C 0.403015157450779 0.3760410844543785 1.1672217975298393 0.0
H H 0.5006251574507791 0.3740110844543785 1.1446917975298392 0.0
C C 0.5431615026059934 0.788582835207965 1.2595514417431708 0.0
C C 0.7834091395560132 0.7956077174577489 1.2062896619468257 0.0
C C 0.5330281017579084 0.6664282840503719 1.0360929045745446 0.0
H H 0.5614381017579084 0.6636982840503721 0.9879629045745447 0.0
C C 0.6135182320124486 0.715294140428275 1.091524946142217 0.0
H H 0.6843282320124486 0.7436641404282749 1.072984946142217 0.0
C C 0.5904481073934937 0.7138892409955098 1.1469890620978986 0.0
C C 0.47863338018275614 0.6747349163781393 1.1735140777614936 0.0
H H 0.4503233801827562 0.6749049163781393 1.2216740777614936 0.0
C C 0.4033981444843512 0.6239508805869033 1.1382451567378489 0.0
H H 0.3299081444843512 0.5954208805869033 1.154605156737849 0.0
O O 0.254869188047831 0.6434614418906118 0.9007356851909283 0.0
O O 0.0848117561400091 0.6296388577018053 0.9813982236299476 0.0
O O -0.1537430970514812 0.34555601257661916 0.7616449432836104 0.0
O O 0.32895942390012495 0.3723673321023148 0.6657934398793757 0.0
N N 0.09708331383672025 0.3670813688632309 0.739986416609773 0.0
N N 0.22172312229546526 0.49306913108648853 0.8907070623423722 0.0
C C 0.16366515290860462 0.6531072187883968 0.9434370000061469 0.0
C C 0.03939116394111705 0.7122283188572465 0.9045532440638672 0.0
C C -0.07800320821206756 0.7244277716133762 0.9449197731055002 0.0
H H -0.1122132082120676 0.6996977716133763 0.9821797731055001 0.0
C C 0.19085816788631557 0.27221010418297237 0.5836043181760916 0.0
H H 0.28926816788631554 0.28108010418297236 0.5638643181760916 0.0
C C 0.15172081269706109 0.3070786653793548 0.6509434106255749 0.0
C C 0.009299011204769555 0.29172337687486993 0.6631696773876141 0.0
C C 0.08632034828018799 0.7378678132243904 0.8516815754748839 0.0
H H 0.18681034828018803 0.7304378132243904 0.8329415754748839 0.0
C C 0.24080784472870007 0.3532209843029002 0.6840765661556389 0.0
C C -0.014274785127277208 0.33165006309842887 0.7249596057987514 0.0
C C 0.27879076192789615 0.4979000592228491 0.8383982557653041 0.0
H H 0.3343107619278961 0.5336700592228493 0.8281682557653041 0.0
C C 0.20365167564997314 0.4587347534857909 0.7813102144725087 0.0
H H 0.23196167564997314 0.4672047534857909 0.7341702144725089 0.0
C C 0.14089550643708085 0.40747583201892557 0.785452558458005 0.0
C C 0.09972537692353428 0.3988437868145397 0.8631208369250677 0.0
H H 0.0397453769235343 0.3644137868145397 0.8749808369250678 0.0
C C 0.14941317766437812 0.4469202892530336 0.9009770791841638 0.0
H H 0.11766317766437809 0.4403002892530336 0.9480570791841638 0.0
Cd Cd -0.32970986574548167 1.0599055800041755 -0.4854855885037713 0.0
O O -0.4343895443419732 0.9644650295403188 -0.5533685082852301 0.0
O O -0.18988950475051616 1.0025045568977933 -0.5807649269422539 0.0
O O -0.8970525857506659 1.280513568405982 -0.6521196044245409 0.0
O O -0.40468100099875487 1.2676031186073193 -0.7611358832785539 0.0
N N -0.44046472596251723 1.126071666161232 -0.5621830166857964 0.0
N N -0.6433350016167627 1.2567627713423342 -0.7073967142287452 0.0
C C -0.3122682531321687 0.9605011270747642 -0.5857538402617988 0.0
C C -0.2798776947255928 0.9154892509843616 -0.6488231934677613 0.0
C C -0.151804064045758 0.9301942747745264 -0.6813963925455431 0.0
H H -0.076894064045758 0.9610542747745265 -0.6687563925455431 0.0
C C -0.1025408371335227 0.8730176241835423 -0.7316858122193836 0.0
H H -0.0036308371335226847 0.8735776241835423 -0.7533458122193836 0.0
C C -0.22898320970219832 0.8370180360984759 -0.7452376183220658 0.0
C C -0.3710626185047887 0.8297393655181926 -0.7136740585971069 0.0
C C -0.4035408639837136 0.8697382036757417 -0.6656556862371962 0.0
H H -0.5011508639837137 0.8677082036757418 -0.6431256862371962 0.0
C C -0.5371817496056291 1.2938444942266114 -0.7453532906384719 0.0
C C -0.8125297429168695 1.2854877066259554 -0.7048737379078864 0.0
C C -0.5796964310940854 1.162636378561627 -0.5410787676569908 0.0
H H -0.6081064310940856 1.1599063785616268 -0.49294876765699097 0.0
C C -0.6420007930646905 1.208035994372107 -0.5817598308439387 0.0
H H -0.7128107930646906 1.236405994372107 -0.5632198308439386 0.0
C C -0.5994311892715908 1.207474406821538 -0.6508621482563262 0.0
C C -0.49759639674671974 1.1716810539383804 -0.6768942194918126 0.0
H H -0.4692863967467197 1.1718510539383804 -0.7250542194918125 0.0
C C -0.39830640427364766 1.1181778149508377 -0.6304467594501896 0.0
H H -0.3248164042736476 1.0896478149508377 -0.6468067594501897 0.0
O O -0.2867975021295441 1.1379294807097249 -0.4093814707635423 0.0
O O -0.08879145388081201 1.118583293956878 -0.49178074248751147 0.0
O O 0.13200134827848312 0.8299595757040098 -0.26792332090280246 0.0
O O -0.34935736609202145 0.8758501061169734 -0.18394395754205825 0.0
N N -0.10039809224703015 0.8610481884962256 -0.23780923199811577 0.0
N N -0.24161898085624398 0.9894915480700325 -0.39999612435108195 0.0
C C -0.12981011776115536 1.1544520325367948 -0.43455155900702597 0.0
C C -0.05179949104837276 1.2051940444980092 -0.4069808433113247 0.0
C C 0.08930247588964321 1.215072711678137 -0.4413322681622086 0.0
H H 0.12351247588964322 1.190342711678137 -0.47859226816220857 0.0
C C -0.20009616539427877 0.7733522674791695 -0.08194738049534389 0.0
H H -0.2985061653942788 0.7822222674791696 -0.06220738049534391 0.0
C C -0.1319530820640281 0.8029188144389388 -0.13809465421013065 0.0
C C 0.024878307344731235 0.786597929250366 -0.1804665266576081 0.0
C C -0.08021559496619583 1.2376917400894163 -0.34293960675483975 0.0
H H -0.18070559496619584 1.2302617400894165 -0.3241996067548398 0.0
C C -0.1946993591136979 0.8585496383768662 -0.1787131328583777 0.0
C C 0.03242216466950328 0.8370501413801521 -0.23084222441223953 0.0
C C -0.2566708235617661 1.008000181041516 -0.332604828325899 0.0
H H -0.3121908235617662 1.043770181041516 -0.32237482832589903 0.0
C C -0.2064960718783022 0.9712193993315884 -0.27142300270551195 0.0
H H -0.2348060718783022 0.9796893993315884 -0.22428300270551196 0.0
C C -0.1499112650733024 0.9133821605996695 -0.29469719054046756 0.0
C C -0.09429915260798126 0.9085249124806677 -0.3564567659939149 0.0
H H -0.034319152607981254 0.8740949124806678 -0.3683167659939149 0.0
C C -0.1358156101703158 0.9511509052187861 -0.3995517555818485 0.0
H H -0.10406561017031579 0.9445309052187861 -0.44663175558184853 0.0
Cd Cd -0.3011232778781528 -0.5555605907684757 -0.9902413664263036 0.0
O O -0.4231582617879773 -0.45623171004025265 -1.0500657419398112 0.0
O O -0.2232666566171848 -0.5050454365203851 -1.0794049749027035 0.0
O O -0.881943500705329 -0.769720710282033 -1.1466495065385351 0.0
O O -0.44121601200596544 -0.7684172507822121 -1.2661846758000213 0.0
N N -0.45300693175045487 -0.6169124194348198 -1.0613012460815745 0.0
N N -0.6369838950713751 -0.752434325775903 -1.1915412487572845 0.0
C C -0.30829737701695603 -0.46167222222845156 -1.0851534955350883 0.0
C C -0.28398505058796464 -0.41525276463388844 -1.148621589682091 0.0
C C -0.11768097646021523 -0.4238855866030741 -1.177949958480118 0.0
H H -0.04277097646021519 -0.4547455866030741 -1.1653099584801179 0.0
C C -0.1059205732707989 -0.3841670731498782 -1.2272324599539195 0.0
H H -0.007010573270798896 -0.3847270731498782 -1.2488924599539195 0.0
C C -0.20842700016809643 -0.33458098575116163 -1.2489193172453763 0.0
C C -0.3508992236725438 -0.32969564139785773 -1.2139567670071922 0.0
C C -0.3717342084712451 -0.372635730459862 -1.1667899109410502 0.0
H H -0.4693442084712452 -0.370605730459862 -1.1442599109410503 0.0
C C -0.526547238650128 -0.7824189143436715 -1.2456510786060202 0.0
C C -0.7756723525432605 -0.7769774714398706 -1.1989422848397346 0.0
C C -0.5674696270896074 -0.6676064017583904 -1.0476286175341982 0.0
H H -0.5958796270896073 -0.6648764017583905 -0.9994986175341984 0.0
C C -0.6191878573580503 -0.7014906564955443 -1.0940898712260931 0.0
H H -0.6899978573580503 -0.7298606564955441 -1.0755498712260931 0.0
C C -0.5906988350367698 -0.7111054082238106 -1.1568445239494607 0.0
C C -0.493308615161013 -0.6704330268640418 -1.1781187921288891 0.0
H H -0.464998615161013 -0.6706030268640418 -1.2262787921288891 0.0
C C -0.4238334451116166 -0.6229387044470892 -1.1385395692161986 0.0
H H -0.3503434451116166 -0.5944087044470893 -1.1548995692161987 0.0
O O -0.26970826573144036 -0.6472857307463138 -0.9147036336300245 0.0
O O -0.09686549001169077 -0.6291693873782163 -0.9849113528272858 0.0
O O 0.14340323973441202 -0.34055169116582457 -0.7692898095483485 0.0
O O -0.32126378982588594 -0.3858283884864375 -0.6642390278962019 0.0
N N -0.10458466099198353 -0.3634098884526589 -0.7360159714225577 0.0
N N -0.22813934057819565 -0.4987070206839422 -0.8974968579429765 0.0
C C -0.1521785512177049 -0.6507043820610853 -0.9362959093789603 0.0
C C -0.0669251243245197 -0.7008525448256213 -0.9131069828456349 0.0
C C 0.0960606871255901 -0.7261256193497894 -0.9362454101874127 0.0
H H 0.13027068712559015 -0.7013956193497894 -0.9735054101874127 0.0
C C -0.1918635023648324 -0.2659196828144175 -0.5932037045170822 0.0
H H -0.2902735023648324 -0.27478968281441757 -0.5734637045170821 0.0
C C -0.12781012945215034 -0.29350924548752166 -0.6390547959407554 0.0
C C 0.01599174351319884 -0.2830102703807604 -0.6683806936483226 0.0
C C -0.07851690186648058 -0.7438543513453991 -0.8607240533996922 0.0
H H -0.1790069018664806 -0.7364243513453991 -0.8419840533996921 0.0
C C -0.2335346492993713 -0.35934204756904803 -0.6846573836187663 0.0
C C 0.04697101743040353 -0.34101222212871296 -0.7240620206947205 0.0
C C -0.26374727845126195 -0.5089334952837703 -0.8369557255883646 0.0
H H -0.3192672784512619 -0.5447034952837704 -0.8267257255883647 0.0
C C -0.22854183042519313 -0.4578283477386452 -0.7752576593535512 0.0
H H -0.2568518304251931 -0.4662983477386452 -0.7281176593535512 0.0
C C -0.14238907603599582 -0.40522691439773945 -0.7979687597486297 0.0
C C -0.08695932110987391 -0.3972717632591548 -0.8631901843900357 0.0
H H -0.02697932110987393 -0.36284176325915485 -0.8750501843900359 0.0
C C -0.15203481247140047 -0.4433936125219467 -0.9105642703139457 0.0
H H -0.12028481247140045 -0.4367736125219467 -0.9576442703139457 0.0
Cd Cd 0.31993850495250054 -1.0615206118030505 0.4885011523489829 0.0
O O 0.4280426243325984 -0.9565537682091945 0.5643536173281544 0.0
O O 0.1860619942875719 -1.0061587114573463 0.57120882284818 0.0
O O 0.8977723204278855 -1.2816098289385396 0.652814463522194 0.0
O O 0.42156963072473014 -1.2792257560036595 0.7556005425301081 0.0
N N 0.459910867424736 -1.1211995837658915 0.5665873174655113 0.0
N N 0.6541107936268681 -1.2597353919253769 0.6936267778080272 0.0
C C 0.29645185281258146 -0.967562990170912 0.5934486276152309 0.0
C C 0.2683504506229042 -0.9262156478619786 0.6532824378659008 0.0
C C 0.14211120616804573 -0.9208263595077009 0.6741568477103391 0.0
H H 0.06720120616804573 -0.9516863595077011 0.6615168477103391 0.0
C C 0.07644591242855664 -0.8856977105106235 0.7239566842509528 0.0
H H -0.022464087571443386 -0.8862577105106235 0.7456166842509527 0.0
C C 0.20601511114853935 -0.8447384373479468 0.753726112491215 0.0
C C 0.3585203800387871 -0.8421892375359865 0.7218932735430502 0.0
C C 0.3805589296478136 -0.8790116293319247 0.6681050267059148 0.0
H H 0.47816892964781377 -0.8769816293319247 0.6455750267059148 0.0
C C 0.5445991077221155 -1.2911592539149748 0.7526830862215814 0.0
C C 0.7950536817752727 -1.2834611808231646 0.6944234609502017 0.0
C C 0.5728988575866683 -1.1618737221974693 0.5501492205647309 0.0
H H 0.6013088575866684 -1.1591437221974692 0.502019220564731 0.0
C C 0.6334511589983154 -1.2130098232936395 0.580890435609151 0.0
H H 0.7042611589983155 -1.2413798232936395 0.5623504356091509 0.0
C C 0.5652202384950674 -1.2169404435375055 0.6586106684510125 0.0
C C 0.4883976534176538 -1.175240257693916 0.687358392298461 0.0
H H 0.46008765341765373 -1.175410257693916 0.7355183922984609 0.0
C C 0.43573006263703423 -1.1322076982399276 0.6346329433447577 0.0
H H 0.3622400626370342 -1.1036776982399277 0.6509929433447579 0.0
O O 0.2681421736957995 -1.1414397390361064 0.40394944550622547 0.0
O O 0.0794202067158951 -1.11787815889441 0.48399084752790716 0.0
O O -0.16674395721021562 -0.8394997236485103 0.2540348587739958 0.0
O O 0.3431112100898525 -0.8762804900784529 0.1742747642223257 0.0
N N 0.11675128373357535 -0.8689692840272032 0.22852408976924274 0.0
N N 0.20757181247451623 -0.9937932469266443 0.3978313619827214 0.0
C C 0.15999966056856316 -1.158151296062652 0.4319800571297403 0.0
C C 0.04668994626492412 -1.2131463727959357 0.4135471556977033 0.0
C C -0.09819460195037231 -1.2247705246747165 0.4326457459976511 0.0
H H -0.1324046019503723 -1.2000405246747163 0.4699057459976511 0.0
C C 0.20556101278587802 -0.7733438731461384 0.08900101631896613 0.0
H H 0.30397101278587796 -0.7822138731461384 0.06926101631896615 0.0
C C 0.1404721648937692 -0.8023690151736073 0.1439216291304538 0.0
C C -0.029507253620435894 -0.7912654511457091 0.16171518785887443 0.0
C C 0.10262636072995289 -1.2444782064023145 0.3618058400472893 0.0
H H 0.20311636072995287 -1.2370482064023147 0.3430658400472893 0.0
C C 0.22326627408738936 -0.8572446342586715 0.17872584252206025 0.0
C C -0.040387732212851024 -0.8312685480123989 0.22049828798757526 0.0
C C 0.26439060131343844 -1.0109236819377734 0.323265022364613 0.0
H H 0.3199106013134384 -1.0466936819377735 0.3130350223646131 0.0
C C 0.20915260260470048 -0.9600841488797889 0.2769641415960861 0.0
H H 0.23746260260470048 -0.9685541488797889 0.22982414159608616 0.0
C C 0.12662885865153664 -0.9063387474674279 0.2830195432400315 0.0
C C 0.08605881704886108 -0.9001482550014526 0.3560340713523623 0.0
H H 0.026078817048861083 -0.8657182550014527 0.3678940713523623 0.0
C C 0.1321835922245888 -0.9493461539116962 0.4122730356531032 0.0
H H 0.10043359222458881 -0.9427261539116961 0.45935303565310315 0.0
