_cell_length_a 8.39304
_cell_length_b 22.23511
_cell_length_c 18.74218
_cell_angle_alpha 90.0
_cell_angle_beta 94.0312
_cell_angle_gamma 90.0
_symmetry_space_group_name_H-M         'P 1'
_symmetry_Int_Tables_number            1
loop_
_symmetry_equiv_pos_as_xyz
   'x, y, z'
                         
loop_
_atom_site_label
_atom_site_type_symbol
_atom_site_fract_x 
_atom_site_fract_y
_atom_site_fract_z
_atom_site_charge
Cd Cd 0.31244735910293014 0.559595889861681 0.9932810374240076 0.0
O O 0.41157610666734873 0.4539556751704507 1.0514773573532339 0.0
O O 0.1947728991793104 0.5126221714692365 1.0865289279201595 0.0
O O 0.8764380068384705 0.7744923913818395 1.1670988785577356 0.0
O O 0.3890483603547128 0.7715320806837594 1.2717574559264508 0.0
N N 0.47030058217093984 0.6170434974281555 1.064887459065042 0.0
N N 0.6360156100425316 0.7580077635309435 1.1977715044218837 0.0
C C 0.3239418318618873 0.46272546233924505 1.093775555865407 0.0
C C 0.2802000085141879 0.4179616984976931 1.1460767730455002 0.0
C C 0.1513748849891171 0.4287091826880522 1.1782649154769118 0.0
H H 0.07646488498911708 0.45956918268805225 1.1656249154769116 0.0
C C 0.1059395185440452 0.3853017534499627 1.238070841295035 0.0
H H 0.007029518544045191 0.3858617534499627 1.2597308412950352 0.0
C C 0.212024658281802 0.3376222461352352 1.2526362705389649 0.0
C C 0.3584234478646234 0.33218638143290935 1.2255558579507873 0.0
C C 0.3870471082515439 0.36962367718191314 1.160593552055211 0.0
H H 0.48465710825154407 0.36759367718191316 1.1380635520552111 0.0
C C 0.5330381367063622 0.7803603128328965 1.2428364956027187 0.0
C C 0.7847228428686512 0.7831410331336772 1.2064489956667277 0.0
C C 0.5336238218521047 0.6587665040864326 1.0497241068044179 0.0
H H 0.5620338218521046 0.6560365040864327 1.0015941068044178 0.0
C C 0.6174161790267096 0.7133486202796567 1.0862742022694065 0.0
H H 0.6882261790267097 0.7417186202796565 1.0677342022694065 0.0
C C 0.5737454953799835 0.7044676686505672 1.1581772282062328 0.0
C C 0.5027844163523904 0.6667586129769588 1.1814656479573256 0.0
H H 0.47447441635239046 0.6669286129769588 1.2296256479573258 0.0
C C 0.41139213697386695 0.6247202764211952 1.125999954144543 0.0
H H 0.33790213697386695 0.5961902764211952 1.1423599541445428 0.0
O O 0.26226755229553567 0.6353430550634024 0.913087442068031 0.0
O O 0.09663583798258328 0.6264041300351139 0.9887432444731291 0.0
O O -0.13803043038682264 0.3360247227882708 0.7631147941151243 0.0
O O 0.36581023112639294 0.37319238114222597 0.6778459150706794 0.0
N N 0.09601915348007146 0.3705189684677687 0.7311831519351856 0.0
N N 0.21220085083160842 0.49404641077480876 0.8946782113499445 0.0
C C 0.15380421260062738 0.6567976083808815 0.9367061150441375 0.0
C C 0.035154494702198315 0.7128274589736898 0.9080899241335892 0.0
C C -0.0923588694190837 0.7132247071125684 0.9423523302767478 0.0
H H -0.1265688694190837 0.6884947071125684 0.9796123302767477 0.0
C C 0.21117522671957553 0.26055261974475186 0.5961277797122865 0.0
H H 0.3095852267195755 0.2694226197447519 0.5763877797122865 0.0
C C 0.14811993213625324 0.29435907065075295 0.6374407333707675 0.0
C C 0.0069896537276278635 0.28104362239636305 0.6737923678335982 0.0
C C 0.12077759141588215 0.7378404690482768 0.8612766253206517 0.0
H H 0.2212675914158822 0.7304104690482769 0.8425366253206518 0.0
C C 0.1993097104255355 0.35922248989956723 0.6886135733195441 0.0
C C -0.020185616484508295 0.3331943907214108 0.7258375807198455 0.0
C C 0.27731689188003295 0.5106932776371912 0.8226304277946921 0.0
H H 0.33283689188003296 0.5464632776371913 0.8124004277946921 0.0
C C 0.2431520866648487 0.4691263790422319 0.7804082316419721 0.0
H H 0.27146208666484867 0.4775963790422319 0.7332682316419722 0.0
C C 0.14823132747814793 0.4066524210998249 0.7806698047834774 0.0
C C 0.0947803454992868 0.40736793647648495 0.8580541093588523 0.0
H H 0.034800345499286824 0.37293793647648493 0.8699141093588524 0.0
C C 0.15322496763232352 0.4458551529938382 0.913771349163508 0.0
H H 0.1214749676323235 0.43923515299383814 0.960851349163508 0.0
Cd Cd -0.3266782521292796 1.0553138419867811 -0.48940740273044964 0.0
O O -0.4131486034247079 0.9621899728253733 -0.5592490166628336 0.0
O O -0.22223314295681987 1.0047020259248016 -0.5763932438864089 0.0
O O -0.8769366845790865 1.2720221271709837 -0.6699394988945372 0.0
O O -0.4189413582115253 1.281684676940728 -0.759827693593889 0.0
N N -0.4405480496743721 1.1174292343387278 -0.558582773167832 0.0
N N -0.6337591038857641 1.2652672365509012 -0.6939477522766995 0.0
C C -0.31066535397564743 0.9625338777319116 -0.5977574061233569 0.0
C C -0.26981697765672635 0.925961532127461 -0.6427163095657095 0.0
C C -0.1534930076985633 0.9260842581404645 -0.6854313113415597 0.0
H H -0.0785830076985633 0.9569442581404646 -0.6727913113415597 0.0
C C -0.08791848659244454 0.8749511729231728 -0.7300636846915823 0.0
H H 0.010991513407555487 0.8755111729231728 -0.7517236846915824 0.0
C C -0.23324443303524975 0.8374817403977378 -0.757450079396468 0.0
C C -0.33900053052389667 0.8379226060203804 -0.723727673308914 0.0
C C -0.38619011896619965 0.8767827932229514 -0.6707416121848531 0.0
H H -0.4838001189661998 0.8747527932229514 -0.648211612184853 0.0
C C -0.5256671223243865 1.280452791631881 -0.7502977616164618 0.0
C C -0.7860594867340286 1.2863091763639423 -0.7034384641690722 0.0
C C -0.5350431832556607 1.1624075695405611 -0.5454877564435978 0.0
H H -0.5634531832556608 1.159677569540561 -0.4973577564435979 0.0
C C -0.6309439143022931 1.2091401719275625 -0.5923973686542828 0.0
H H -0.7017539143022933 1.2375101719275625 -0.5738573686542828 0.0
C C -0.5750447185860669 1.2062435435454275 -0.6530895179416017 0.0
C C -0.4914960570608385 1.1738544158423931 -0.6884022729205266 0.0
H H -0.4631860570608385 1.1740244158423934 -0.7365622729205265 0.0
C C -0.4138646602749157 1.1310542606904446 -0.6263966934864812 0.0
H H -0.34037466027491564 1.1025242606904446 -0.6427566934864813 0.0
O O -0.28996123213677155 1.1432849389720188 -0.4152101628768843 0.0
O O -0.08284091407849725 1.1167748025148572 -0.4894553333696855 0.0
O O 0.16624416472910222 0.8498908674325054 -0.27368368222146683 0.0
O O -0.351368658172917 0.8736419330369466 -0.17044434179644197 0.0
N N -0.09177016971568279 0.8697310668202096 -0.24361023419887398 0.0
N N -0.21311817669759886 0.9985716595737654 -0.39473781128847757 0.0
C C -0.1501506936994217 1.1506521668337053 -0.44231047854594474 0.0
C C -0.06029800673472846 1.1999495797823243 -0.40840261825393104 0.0
C C 0.10966550072939907 1.222280436600484 -0.43461436681780086 0.0
H H 0.14387550072939903 1.197550436600484 -0.47187436681780087 0.0
C C -0.20056352723145685 0.7749678046558723 -0.09116798588293205 0.0
H H -0.2989735272314568 0.7838378046558724 -0.07142798588293207 0.0
C C -0.13696047945429846 0.798250478040699 -0.1389305084385473 0.0
C C -0.011772120075396285 0.7897968592501601 -0.16703837930566623 0.0
C C -0.12493688109582593 1.2454786682350327 -0.34863140206109816 0.0
H H -0.2254268810958259 1.238048668235033 -0.32989140206109824 0.0
C C -0.1964945844823005 0.8525956259794333 -0.1765745251038598 0.0
C C 0.026913310960735702 0.830190123424749 -0.22681922651863068 0.0
C C -0.25396868136807654 0.9999018457709232 -0.33187471492299203 0.0
H H -0.3094886813680765 1.0356718457709233 -0.32164471492299207 0.0
C C -0.21415742252866318 0.9696995741062763 -0.27492260121666323 0.0
H H -0.24246742252866318 0.9781695741062763 -0.22778260121666324 0.0
C C -0.1334628948971941 0.9171261007185357 -0.2846666173242267 0.0
C C -0.1139903172161652 0.9064829699073528 -0.36213030624208625 0.0
H H -0.054010317216165206 0.8720529699073529 -0.3739903062420863 0.0
C C -0.1447631534310612 0.9447590988847456 -0.406850105027667 0.0
H H -0.11301315343106118 0.9381390988847456 -0.453930105027667 0.0
Cd Cd -0.3257923641397329 -0.5575808461867819 -0.9835643028300368 0.0
O O -0.4312011342391175 -0.4615734125969546 -1.0493079298002832 0.0
O O -0.1836811752708431 -0.5130953526416526 -1.0737354784637727 0.0
O O -0.8909800910531263 -0.7771388354900114 -1.158603335141048 0.0
O O -0.4236348179583226 -0.7645024017756742 -1.2545868563891611 0.0
N N -0.4605652484237378 -0.6240480020674033 -1.0618553410074836 0.0
N N -0.6430568517085744 -0.7522971710302222 -1.200440419250583 0.0
C C -0.3004057653791127 -0.4616510462998329 -1.0842223850892911 0.0
C C -0.27431614833283363 -0.42407074240452897 -1.146784726439 0.0
C C -0.11706578360828951 -0.421153545174446 -1.172602536505972 0.0
H H -0.04215578360828945 -0.45201354517444603 -1.159962536505972 0.0
C C -0.09056543748444164 -0.38851334703655294 -1.2371358093784464 0.0
H H 0.008344562515558374 -0.38907334703655294 -1.2587958093784466 0.0
C C -0.20567486397338983 -0.33859298085935025 -1.2542562885342132 0.0
C C -0.34017954447508997 -0.3401943107792148 -1.2090327989586116 0.0
C C -0.3913231901063886 -0.3829465850108658 -1.1599657680560163 0.0
H H -0.48893319010638875 -0.3809165850108658 -1.1374357680560163 0.0
C C -0.5712542697307748 -0.7782676003072582 -1.2545855987308572 0.0
C C -0.7950340596498299 -0.7816479790279101 -1.2088411466124895 0.0
C C -0.5539787195077867 -0.6616287108478363 -1.0389264861548881 0.0
H H -0.5823887195077867 -0.6588987108478365 -0.9907964861548882 0.0
C C -0.6445340218143579 -0.7043515193127478 -1.0866810601210075 0.0
H H -0.7153440218143579 -0.7327215193127476 -1.0681410601210075 0.0
C C -0.5742032730111944 -0.7101218886736448 -1.1530724407374509 0.0
C C -0.4630702598049971 -0.6666168370648266 -1.1783786557961407 0.0
H H -0.4347602598049971 -0.6667868370648266 -1.2265386557961409 0.0
C C -0.4127268885376708 -0.6287081112458536 -1.1296946398317835 0.0
H H -0.33923688853767076 -0.6001781112458536 -1.1460546398317835 0.0
O O -0.2760434957626976 -0.6441903857757149 -0.902284624326764 0.0
O O -0.07104892610411302 -0.6273507432295742 -0.9900423097258896 0.0
O O 0.1441591550156169 -0.3363851875735467 -0.7651646738375765 0.0
O O -0.33956185087787677 -0.38112563543862055 -0.6775182540832672 0.0
N N -0.12039052278548214 -0.36805533944089935 -0.738688563923559 0.0
N N -0.2258111338889577 -0.4934917016563243 -0.9026515595064968 0.0
C C -0.14051693989719735 -0.6567464902891224 -0.9355499487189777 0.0
C C -0.04021473001674772 -0.7058595657958384 -0.90117995040909 0.0
C C 0.0769113472275315 -0.7222164910956355 -0.9441248579826255 0.0
H H 0.1111213472275315 -0.6974864910956357 -0.9813848579826253 0.0
C C -0.19481752477351025 -0.26426622651046977 -0.5893903565629766 0.0
H H -0.2932275247735102 -0.2731362265104698 -0.5696503565629766 0.0
C C -0.1438121893387599 -0.299426932180408 -0.6374828081115594 0.0
C C -0.015661019364178144 -0.2900217270253972 -0.666249764735804 0.0
C C -0.10288086955413728 -0.745373629157294 -0.8598587734675398 0.0
H H -0.2033708695541373 -0.7379436291572941 -0.8411187734675398 0.0
C C -0.2280181486572863 -0.3455700487632246 -0.6833682466363719 0.0
C C 0.005664099234088055 -0.3294030278642731 -0.7394536512752395 0.0
C C -0.2645809086138397 -0.5101590929618264 -0.8215598712068404 0.0
H H -0.32010090861383966 -0.5459290929618266 -0.8113298712068404 0.0
C C -0.22438848003998138 -0.4589985334223246 -0.7756161752307229 0.0
H H -0.25269848003998135 -0.4674685334223246 -0.728476175230723 0.0
C C -0.14622421368315275 -0.4144357438524335 -0.7820977751171218 0.0
C C -0.09331122273403786 -0.3991371523033042 -0.8641864420710096 0.0
H H -0.03333122273403788 -0.3647071523033042 -0.8760464420710097 0.0
C C -0.13902230557653325 -0.44964395247167144 -0.9090760922630475 0.0
H H -0.10727230557653324 -0.4430239524716714 -0.9561560922630475 0.0
Cd Cd 0.3146769374258346 -1.0598055702546894 0.4803049298902842 0.0
O O 0.412716320634852 -0.9560051216814262 0.5564648929041945 0.0
O O 0.18883401591499518 -1.0061597465183916 0.5782668079231427 0.0
O O 0.8932485452140647 -1.2764000370058708 0.6502465038710394 0.0
O O 0.43301842410593455 -1.269889645946606 0.7663787522991594 0.0
N N 0.45749992934525513 -1.1246262835472371 0.5662148221335719 0.0
N N 0.6496674460516866 -1.261600844888072 0.7050337120124556 0.0
C C 0.30401200206762136 -0.9651611212923774 0.5957331504959542 0.0
C C 0.26963019991355935 -0.9134080564865177 0.6444353058680378 0.0
C C 0.13910840938160185 -0.9197792475948237 0.6825001572601047 0.0
H H 0.06419840938160186 -0.9506392475948238 0.6698601572601047 0.0
C C 0.08933760034174719 -0.8755393679420475 0.7424438535692797 0.0
H H -0.009572399658252849 -0.8760993679420475 0.7641038535692797 0.0
C C 0.19872668822662556 -0.8332662283320159 0.7586933252370832 0.0
C C 0.34125240345050667 -0.8348916868428323 0.7202451774843924 0.0
C C 0.37381033682850257 -0.8765501310736581 0.6713654259891981 0.0
H H 0.47142033682850265 -0.8745201310736581 0.6488354259891982 0.0
C C 0.5447888831194888 -1.280085530250509 0.7551379204096512 0.0
C C 0.7894885607874986 -1.2820774200447231 0.6869904532663909 0.0
C C 0.5425958193473672 -1.1597606471341997 0.5451363471056068 0.0
H H 0.5710058193473673 -1.1570306471341996 0.4970063471056068 0.0
C C 0.638089526199193 -1.2060812462034822 0.5763335461222631 0.0
H H 0.7088995261991932 -1.2344512462034822 0.557793546122263 0.0
C C 0.5964270549351813 -1.2084184462230292 0.6547178869695243 0.0
C C 0.458452593357176 -1.1609682671723855 0.6857461036975092 0.0
H H 0.4301425933571759 -1.1611382671723856 0.7339061036975091 0.0
C C 0.4108851903291701 -1.1311972505975656 0.6332974827125389 0.0
H H 0.3373951903291701 -1.1026672505975657 0.6496574827125392 0.0
O O 0.2721798549478146 -1.14435960416951 0.41526588435070544 0.0
O O 0.105081807226076 -1.1285020193547097 0.47908177778401456 0.0
O O -0.14633063757968937 -0.8354817597961185 0.25822964187004904 0.0
O O 0.34442624808049166 -0.8674466986387805 0.1749185856286478 0.0
N N 0.09656327600296606 -0.8647497373937011 0.24149516918425104 0.0
N N 0.22749295040812575 -0.9930824397447042 0.4038808340726274 0.0
C C 0.16314158344954108 -1.1483932270249093 0.4355321541446247 0.0
C C 0.03787468220650277 -1.2002364206239076 0.4040448965788774 0.0
C C -0.11341467302604417 -1.2160267767783246 0.4399588111360307 0.0
H H -0.14762467302604415 -1.1912967767783247 0.4772188111360307 0.0
C C 0.1836833063510199 -0.7733652320235808 0.09728409785054412 0.0
H H 0.28209330635101987 -0.7822352320235808 0.07754409785054414 0.0
C C 0.13281415973812138 -0.7973872167921453 0.14014937320002668 0.0
C C -0.013212168127837707 -0.7897337795203639 0.16106796585597452 0.0
C C 0.10802843983928766 -1.2497315191609375 0.3438709115427513 0.0
H H 0.20851843983928764 -1.2423015191609377 0.3251309115427513 0.0
C C 0.21900719422746445 -0.8515483838593515 0.1841666644350598 0.0
C C -0.05099614804615272 -0.8302207560292184 0.22102589581156698 0.0
C C 0.24899565118536598 -0.9981021252679806 0.3295029216543786 0.0
H H 0.304515651185366 -1.0338721252679806 0.3192729216543787 0.0
C C 0.2066306420912722 -0.9587523624189833 0.26913500667309764 0.0
H H 0.2349406420912722 -0.9672223624189833 0.22199500667309766 0.0
C C 0.15870266666790642 -0.9160267328460634 0.2867544266016336 0.0
C C 0.11281319874720318 -0.9007488817298263 0.3597257171022253 0.0
H H 0.05283319874720317 -0.8663188817298264 0.3715857171022253 0.0
C C 0.13472901149209596 -0.9400344524236366 0.40372154630624657 0.0
H H 0.10297901149209594 -0.9334144524236365 0.4508015463062465 0.0
