_cell_length_a 8.39304
_cell_length_b 22.23511
_cell_length_c 18.74218
_cell_angle_alpha 90.0
_cell_angle_beta 94.0312
_cell_angle_gamma 90.0
_symmetry_space_group_name_H-M         'P 1'
_symmetry_Int_Tables_number            1
loop_
_symmetry_equiv_pos_as_xyz
   'x, y, z'
                         
loop_
_atom_site_label
_atom_site_type_symbol
_atom_site_fract_x 
_atom_site_fract_y
_atom_site_fract_z
_atom_site_charge
Cd Cd 0.30331353985858733 0.5573234841020784 0.9922983650848551 0.0
O O 0.4425547721351845 0.4547294799600966 1.0527445264628559 0.0
O O 0.20068137909199124 0.5020744005489801 1.0708037791392133 0.0
O O 0.8775644007331033 0.7789823923807232 1.169765713139105 0.0
O O 0.40972279406270284 0.7708625002960439 1.276831897658691 0.0
N N 0.44386029240008257 0.6187766444884774 1.0718061038283655 0.0
N N 0.632541675504504 0.7556863777671924 1.2028130644715167 0.0
C C 0.3093612991318368 0.4641882835173756 1.0951596294330324 0.0
C C 0.2571762476487765 0.41343805879298 1.142002761344684 0.0
C C 0.12571040010407408 0.4266323561884947 1.1840810435659255 0.0
H H 0.050800400104074 0.45749235618849476 1.1714410435659253 0.0
C C 0.08823356499470067 0.3886510398238338 1.2260094692572923 0.0
H H -0.010676435005299337 0.3892110398238338 1.2476694692572923 0.0
C C 0.1973536733863661 0.33909586121721036 1.254107232704382 0.0
C C 0.3499123066835673 0.33927070393385794 1.2137346598300014 0.0
C C 0.3733444142679059 0.3698892669258826 1.1622697709678593 0.0
H H 0.47095441426790596 0.36785926692588256 1.1397397709678594 0.0
C C 0.5469549976022645 0.7801539660303524 1.2601622687249763 0.0
C C 0.8099112340865198 0.7787302733234104 1.195681227365846 0.0
C C 0.5515486329452858 0.6560732210480931 1.0423730834202616 0.0
H H 0.5799586329452857 0.6533432210480933 0.9942430834202617 0.0
C C 0.6225475978854981 0.704086800491492 1.0861123299935163 0.0
H H 0.6933575978854982 0.7324568004914919 1.0675723299935163 0.0
C C 0.5705919248680097 0.7103001017325236 1.1481147664355855 0.0
C C 0.46020736449062033 0.6628579488246296 1.1859285289115604 0.0
H H 0.4318973644906204 0.6630279488246296 1.2340885289115606 0.0
C C 0.4014620206680523 0.6198883829485841 1.1312291889109038 0.0
H H 0.3279720206680523 0.5913583829485841 1.1475891889109038 0.0
O O 0.2556941734629175 0.6390647949570404 0.9141385691495134 0.0
O O 0.08931156683253 0.6178656886884563 0.98343015369474 0.0
O O -0.12497453659824831 0.3388455973223253 0.7683871340787392 0.0
O O 0.33024781692608146 0.38368513687124634 0.6828208009607755 0.0
N N 0.11513607754651647 0.3746050686568612 0.7264046568053387 0.0
N N 0.21154199300391902 0.49927943754916426 0.9020642353474967 0.0
C C 0.142950368706177 0.6581284814641154 0.9357571545718324 0.0
C C 0.0263492683164493 0.7114954231717008 0.908251733071667 0.0
C C -0.09720006027873347 0.7199917673304068 0.9442584938529911 0.0
H H -0.13141006027873348 0.695261767330407 0.981518493852991 0.0
C C 0.19823576146680252 0.26740105510995754 0.5960714080301006 0.0
H H 0.29664576146680255 0.27627105510995753 0.5763314080301006 0.0
C C 0.1359287176046679 0.3065714050160958 0.6517509683451007 0.0
C C -0.0037265704631991806 0.29442383893114016 0.6666338117714672 0.0
C C 0.10613269883970822 0.742146220596887 0.8650422433597643 0.0
H H 0.20662269883970824 0.7347162205968869 0.8463022433597643 0.0
C C 0.21843479316961503 0.3536604481253167 0.6736842919729745 0.0
C C -0.03829296378686681 0.32890342428742886 0.7380741077115244 0.0
C C 0.2572959533991273 0.5048939986717421 0.8378651707034281 0.0
H H 0.3128159533991273 0.5406639986717422 0.8276351707034282 0.0
C C 0.21967724985036777 0.45703062285579005 0.7726854568732742 0.0
H H 0.24798724985036774 0.46550062285579 0.7255454568732743 0.0
C C 0.14590048672454936 0.4189015432282713 0.7885995465255051 0.0
C C 0.08411291825225713 0.3989342772828784 0.8537060185001474 0.0
H H 0.02413291825225713 0.3645042772828784 0.8655660185001475 0.0
C C 0.155450524434908 0.4448696478622614 0.9057044822319557 0.0
H H 0.12370052443490799 0.43824964786226134 0.9527844822319557 0.0
Cd Cd -0.32545685872971936 1.0608356617366297 -0.49271587031456926 0.0
O O -0.4347309989363254 0.9654619649963297 -0.559561840988892 0.0
O O -0.19014416503653742 1.003704342809013 -0.5793130238686773 0.0
O O -0.9116328117329061 1.2703237277822617 -0.646524408399663 0.0
O O -0.40270330494130324 1.2613691090051318 -0.7497398680499446 0.0
N N -0.4442284446342538 1.1208761317506486 -0.5668394128264401 0.0
N N -0.6402021476076011 1.2492869975885097 -0.7014733554848778 0.0
C C -0.30718831678606096 0.9663389003107141 -0.5872154547240737 0.0
C C -0.2844766180141125 0.9241150937943896 -0.6416082924313695 0.0
C C -0.13468620250680613 0.931290364974064 -0.6894043726962001 0.0
H H -0.05977620250680613 0.9621503649740643 -0.6767643726962002 0.0
C C -0.08469057363935707 0.8902564720636802 -0.7270395682529464 0.0
H H 0.014219426360642958 0.8908164720636802 -0.7486995682529464 0.0
C C -0.22992036743000804 0.8454566083234122 -0.7590968865458517 0.0
C C -0.34752324446929045 0.8344776096555997 -0.7170462471339203 0.0
C C -0.39288783739686634 0.8796448225828747 -0.6714547486575987 0.0
H H -0.4904978373968665 0.8776148225828747 -0.6489247486575986 0.0
C C -0.5411994111444874 1.2929622227765194 -0.7503993664292428 0.0
C C -0.7766642638735317 1.2780838303035387 -0.7054829980636125 0.0
C C -0.559441164425798 1.1556096994442184 -0.5399426252813712 0.0
H H -0.5878511644257981 1.1528796994442183 -0.49181262528137126 0.0
C C -0.6064559663577903 1.2080241049249 -0.5919704064072502 0.0
H H -0.6772659663577905 1.2363941049249 -0.5734304064072501 0.0
C C -0.5920397519156599 1.2072283895175422 -0.6464584464218748 0.0
C C -0.45989302032688073 1.1682777026959774 -0.6713211091543796 0.0
H H -0.4315830203268806 1.1684477026959774 -0.7194811091543795 0.0
C C -0.4007287736763434 1.12932739642004 -0.6357544291213346 0.0
H H -0.3272387736763434 1.1007973964200402 -0.6521144291213349 0.0
O O -0.2808051226162381 1.1444973795219529 -0.40660028106843527 0.0
O O -0.1019424522083795 1.1203280056837406 -0.4846717134548781 0.0
O O 0.16479358759853505 0.838768430632042 -0.2577496286915896 0.0
O O -0.3424264435421319 0.8761404402221217 -0.17156050388414062 0.0
N N -0.11323200522418095 0.8695950936763379 -0.24040641397138207 0.0
N N -0.2130137192343595 0.9990085601550129 -0.3964655405936884 0.0
C C -0.13613314706501867 1.1538884410978008 -0.43051146879576846 0.0
C C -0.030430994172241897 1.2045437167902577 -0.4044232191897589 0.0
C C 0.10254194186024905 1.2169844971723567 -0.438924944205881 0.0
H H 0.13675194186024905 1.1922544971723565 -0.476184944205881 0.0
C C -0.19352886443995287 0.7698877154535174 -0.08422686813759986 0.0
H H -0.2919388644399529 0.7787577154535175 -0.06448686813759989 0.0
C C -0.13094243774088057 0.7985687350312234 -0.14981772635976498 0.0
C C -0.00677056035506336 0.7797023993151508 -0.1631037434552794 0.0
C C -0.10508091232221459 1.2387453394584853 -0.3463894454735957 0.0
H H -0.20557091232221456 1.2313153394584855 -0.3276494454735957 0.0
C C -0.19829577688652733 0.8529079123328445 -0.1882296172901708 0.0
C C 0.04585233967959171 0.8328560275192333 -0.2332844365435883 0.0
C C -0.2501502621692854 0.9976790602148183 -0.32272330996644993 0.0
H H -0.30567026216928533 1.0334490602148185 -0.31249330996645003 0.0
C C -0.21501193070789415 0.9728941987109733 -0.2684022089595892 0.0
H H -0.24332193070789415 0.9813641987109732 -0.22126220895958926 0.0
C C -0.15799676962650042 0.9053058049622323 -0.2914038434169747 0.0
C C -0.08594876028591217 0.9049994594836812 -0.3636965048543137 0.0
H H -0.025968760285912162 0.8705694594836814 -0.3755565048543137 0.0
C C -0.15542405222879752 0.9402800123017988 -0.4125129677803142 0.0
H H -0.12367405222879749 0.9336600123017987 -0.4595929677803142 0.0
Cd Cd -0.3105321581645927 -0.5551600132055977 -0.9913086243621019 0.0
O O -0.4314570633128634 -0.4591492263641135 -1.0523230711909373 0.0
O O -0.20419728602429366 -0.509972533304705 -1.0823585337549666 0.0
O O -0.9052517621012476 -0.7736361969383594 -1.1592101770266514 0.0
O O -0.4289419305455511 -0.783876504210839 -1.2504663337666446 0.0
N N -0.45040372725533956 -0.6252245039198221 -1.0683547604964292 0.0
N N -0.6406757789438263 -0.7637720168234177 -1.1917237327112353 0.0
C C -0.30742977851558967 -0.4659575404772145 -1.0923094149987902 0.0
C C -0.28372626198472206 -0.4163056744287282 -1.1428306103269008 0.0
C C -0.1261780189606906 -0.417313734330152 -1.177638676446185 0.0
H H -0.05126801896069055 -0.44817373433015206 -1.164998676446185 0.0
C C -0.08114337126982618 -0.3758655227703513 -1.239036072832149 0.0
H H 0.017766628730173845 -0.3764255227703513 -1.260696072832149 0.0
C C -0.21649017598029738 -0.3289750920305887 -1.2484181878676184 0.0
C C -0.3608766996122227 -0.3433250298064245 -1.2092763770994868 0.0
C C -0.40618698233892175 -0.379000826095286 -1.1583250605820135 0.0
H H -0.5037969823389219 -0.37697082609528604 -1.1357950605820135 0.0
C C -0.5604245881667893 -0.7890664427055997 -1.2403241578032993 0.0
C C -0.8035939170988291 -0.7880367926252938 -1.1990428306222431 0.0
C C -0.5573079359396976 -0.6582695141636752 -1.0459558109606952 0.0
H H -0.5857179359396977 -0.6555395141636754 -0.9978258109606953 0.0
C C -0.6338278411084185 -0.7131127269040756 -1.0773262067242713 0.0
H H -0.7046378411084186 -0.7414827269040754 -1.0587862067242713 0.0
C C -0.5743124861946304 -0.7136357934382455 -1.1505576872432157 0.0
C C -0.48811773322983104 -0.6735512873022194 -1.173464202558122 0.0
H H -0.4598077332298311 -0.6737212873022194 -1.2216242025581219 0.0
C C -0.41399911099524833 -0.6296637996057683 -1.1400064989202652 0.0
H H -0.3405091109952483 -0.6011337996057684 -1.1563664989202653 0.0
O O -0.2723544199639039 -0.6466092941964248 -0.905999642453835 0.0
O O -0.083796585916927 -0.6247984225584903 -0.9877535288973367 0.0
O O 0.1193090320686328 -0.33004700667542725 -0.767500182335529 0.0
O O -0.3275594400842647 -0.3807733628133604 -0.6781501234802332 0.0
N N -0.12119040434886867 -0.361128419543886 -0.7311562857901404 0.0
N N -0.20966865313332783 -0.49506634152266243 -0.8951429469626668 0.0
C C -0.1493649052936941 -0.6519693606665445 -0.9307973881233589 0.0
C C -0.05392247956577624 -0.7069903494345685 -0.9169485617495032 0.0
C C 0.0805076934255427 -0.7217665615784499 -0.9297938768985483 0.0
H H 0.11471769342554271 -0.69703656157845 -0.9670538768985482 0.0
C C -0.18149685589310616 -0.26852228600303524 -0.5951248101920503 0.0
H H -0.27990685589310615 -0.2773922860030352 -0.5753848101920503 0.0
C C -0.15038043633386697 -0.3068300660236863 -0.6444764903372506 0.0
C C -0.0156358680336001 -0.29451470799293256 -0.672262676664261 0.0
C C -0.10171731935624975 -0.7398114100198491 -0.845995067556041 0.0
H H -0.20220731935624978 -0.7323814100198491 -0.8272550675560411 0.0
C C -0.22172981507892642 -0.34425802144608564 -0.6824824540012573 0.0
C C 0.012909872858346463 -0.3252924728627635 -0.7399239354507962 0.0
C C -0.26544435465622673 -0.4972023833970896 -0.8287585637008148 0.0
H H -0.32096435465622675 -0.5329723833970897 -0.8185285637008148 0.0
C C -0.22130756744623414 -0.4716673381356734 -0.779454214211803 0.0
H H -0.24961756744623415 -0.4801373381356734 -0.7323142142118031 0.0
C C -0.15395946812933267 -0.41254383948360873 -0.7963260937186165 0.0
C C -0.08306576746229027 -0.40462210966423623 -0.865133161619386 0.0
H H -0.023085767462290286 -0.3701921096642362 -0.8769931616193862 0.0
C C -0.15267459349192344 -0.4436534096472162 -0.9036026419924101 0.0
H H -0.12092459349192342 -0.4370334096472162 -0.9506826419924101 0.0
Cd Cd 0.30101116182019694 -1.0523225900459654 0.4827425976890514 0.0
O O 0.41868068682693577 -0.9645370955358594 0.5508563438440126 0.0
O O 0.212390950096844 -1.0089061586884271 0.57435080364938 0.0
O O 0.9148120415785201 -1.2686331420527897 0.669974807516442 0.0
O O 0.397054103964029 -1.273901499399502 0.7620404218834642 0.0
N N 0.4657255784979258 -1.1171742620507055 0.5693445805734402 0.0
N N 0.6306396117322792 -1.2510345463390378 0.7012851213790237 0.0
C C 0.29604192492777415 -0.9645929033926075 0.5874661800584112 0.0
C C 0.28181111384153645 -0.9237710175944973 0.654248040711 0.0
C C 0.1404774767765249 -0.922722793532187 0.6690028694944049 0.0
H H 0.0655674767765249 -0.9535827935321872 0.6563628694944049 0.0
C C 0.0954876168551656 -0.8796346036599645 0.7318336058680671 0.0
H H -0.0034223831448344367 -0.8801946036599645 0.753493605868067 0.0
C C 0.22952051875746265 -0.8434284931399362 0.7395816586486725 0.0
C C 0.35136508796893245 -0.835985993288855 0.7140380891150399 0.0
C C 0.3914120315179007 -0.8735369015231135 0.6674052277662287 0.0
H H 0.48902203151790086 -0.8715069015231135 0.6448752277662286 0.0
C C 0.531387141270312 -1.2817375727038467 0.7542879397257015 0.0
C C 0.8082133198160941 -1.2807771607337672 0.6900751655644407 0.0
C C 0.5606481666583109 -1.1684695667877807 0.5399765764702485 0.0
H H 0.5890581666583109 -1.1657395667877806 0.49184657647024865 0.0
C C 0.6169554918664313 -1.2097500691447995 0.5856027603444087 0.0
H H 0.6877654918664314 -1.2381200691447996 0.5670627603444086 0.0
C C 0.5762085498057888 -1.2047921416024774 0.6588220078374022 0.0
C C 0.49826343654464 -1.1643903502264226 0.6842702794846693 0.0
H H 0.46995343654463995 -1.1645603502264226 0.7324302794846693 0.0
C C 0.4048395666664125 -1.126490642327129 0.6291008678178326 0.0
H H 0.3313495666664126 -1.0979606423271289 0.6454608678178329 0.0
O O 0.2707166507075759 -1.1420746528920833 0.4041332206802407 0.0
O O 0.08926876425377053 -1.11731267573607 0.47724846199146614 0.0
O O -0.13707954516553064 -0.8297267961947202 0.25642909881786347 0.0
O O 0.3211126370643104 -0.8746906548723563 0.18247285805827093 0.0
N N 0.10820955436221187 -0.867736142748843 0.23367190979672162 0.0
N N 0.225369498403637 -0.9939641345670118 0.40487558580882554 0.0
C C 0.1643971668766477 -1.1486703559750706 0.4337460516497778 0.0
C C 0.04991435611824769 -1.200016388174604 0.40284447857058847 0.0
C C -0.07969022636321235 -1.2230239368791833 0.43014649927429516 0.0
H H -0.11390022636321233 -1.1982939368791832 0.4674064992742951 0.0
C C 0.21242335326273334 -0.7729472591439788 0.08493022478459826 0.0
H H 0.3108333532627333 -0.7818172591439788 0.06519022478459828 0.0
C C 0.15751745434545358 -0.7970038688498671 0.1377579242456182 0.0
C C 0.0031387891702784935 -0.7939677159493168 0.16215341817990359 0.0
C C 0.0929452942922255 -1.2381333887716017 0.3474277506144105 0.0
H H 0.1934352942922255 -1.230703388771602 0.3286877506144105 0.0
C C 0.19644456121874543 -0.8547292458695381 0.1801397764633438 0.0
C C -0.01996198817146568 -0.8380748759064726 0.22536587484411386 0.0
C C 0.24951529079585189 -1.0091398334513113 0.326429255238775 0.0
H H 0.30503529079585184 -1.0449098334513114 0.31619925523877507 0.0
C C 0.22694651347959713 -0.9670495889481674 0.2665679978997449 0.0
H H 0.2552565134795971 -0.9755195889481674 0.21942799789974488 0.0
C C 0.13318125012258245 -0.9115827428109661 0.29723768182833277 0.0
C C 0.10100698596130518 -0.9078769444390996 0.35489619703933206 0.0
H H 0.04102698596130519 -0.8734469444390996 0.3667561970393321 0.0
C C 0.14676279233310674 -0.9490054659008947 0.400385893962688 0.0
H H 0.11501279233310674 -0.9423854659008947 0.447465893962688 0.0
