_cell_length_a 8.39304
_cell_length_b 22.23511
_cell_length_c 18.74218
_cell_angle_alpha 90.0
_cell_angle_beta 94.0312
_cell_angle_gamma 90.0
_symmetry_space_group_name_H-M         'P 1'
_symmetry_Int_Tables_number            1
loop_
_symmetry_equiv_pos_as_xyz
   'x, y, z'
                         
loop_
_atom_site_label
_atom_site_type_symbol
_atom_site_fract_x 
_atom_site_fract_y
_atom_site_fract_z
_atom_site_charge
Cd Cd 0.3038231361917859 0.5544078280315561 0.9881739792682581 0.0
O O 0.42063263834245423 0.45659499007165116 1.0533076250377749 0.0
O O 0.18720640204694955 0.5070254505398337 1.0868037123254188 0.0
O O 0.909370323107322 0.7638768633625482 1.1716393965673313 0.0
O O 0.3982103054586428 0.7682038886430934 1.2476747856573978 0.0
N N 0.4458201610496267 0.6223550979953936 1.0594481777855755 0.0
N N 0.6595959168021827 0.7603509429225759 1.204247165136047 0.0
C C 0.32101811268501623 0.46689777066780463 1.0851961285764349 0.0
C C 0.29081707936529066 0.4242852941302129 1.1518691667985341 0.0
C C 0.13395312293852663 0.4263192448115961 1.172196054269396 0.0
H H 0.05904312293852657 0.45717924481159616 1.159556054269396 0.0
C C 0.08818916531753271 0.38714860558213826 1.2343674791872177 0.0
H H -0.010720834682467293 0.38770860558213827 1.2560274791872177 0.0
C C 0.18919415397559908 0.34429306372714585 1.2396221559234222 0.0
C C 0.36911299418082394 0.34102323505461685 1.2192618256838264 0.0
C C 0.3892625663183332 0.3782928969069879 1.1622845383203468 0.0
H H 0.4868725663183333 0.37626289690698794 1.1397545383203467 0.0
C C 0.537202127577627 0.7913276925015449 1.2548498892833022 0.0
C C 0.8115172942990618 0.7806693947178486 1.2004812506770564 0.0
C C 0.5549599318376194 0.6617530658570084 1.042162931428094 0.0
H H 0.5833699318376194 0.6590230658570085 0.9940329314280941 0.0
C C 0.6421723994913986 0.7087168772095334 1.083591270787007 0.0
H H 0.7129823994913987 0.7370868772095334 1.065051270787007 0.0
C C 0.5647242063824363 0.7119960519556326 1.1525061335225106 0.0
C C 0.48097710792499593 0.6648496448177703 1.1847623876273279 0.0
H H 0.452667107924996 0.6650196448177703 1.2329223876273279 0.0
C C 0.4002752791838417 0.632033183230703 1.1275261780638148 0.0
H H 0.3267852791838417 0.603503183230703 1.1438861780638148 0.0
O O 0.26208145294896534 0.6421968121085511 0.9020601597558866 0.0
O O 0.08897470181297353 0.6239276349072926 0.9890685895877172 0.0
O O -0.12523023128096955 0.3437936805845673 0.7529464562226502 0.0
O O 0.33051884698104794 0.37275774242126986 0.682744659233703 0.0
N N 0.13179078843682815 0.36491826437450264 0.7410156838615083 0.0
N N 0.24206251779716348 0.49963065605042983 0.9009466445551618 0.0
C C 0.15662976638408213 0.6543159799638284 0.9390061535880282 0.0
C C 0.06691973964211351 0.6997782798422927 0.9045858784042407 0.0
C C -0.11663145174970042 0.7184201512490112 0.9462075665520701 0.0
H H -0.15084145174970043 0.6936901512490112 0.9834675665520699 0.0
C C 0.1953866257614983 0.2669604300174012 0.5917438283697367 0.0
H H 0.2937966257614983 0.2758304300174012 0.5720038283697367 0.0
C C 0.12611694004738053 0.30741973103383796 0.6536876610912337 0.0
C C -0.008574850481340197 0.2947566058996798 0.6764968331005367 0.0
C C 0.0966837626012284 0.7432957937273694 0.8543922123452888 0.0
H H 0.19717376260122843 0.7358657937273694 0.835652212345289 0.0
C C 0.19408913666478717 0.3593823141285728 0.6878521674252249 0.0
C C -0.019112172296859162 0.3344479165571279 0.7359338147267427 0.0
C C 0.2549227108704039 0.5058004963049781 0.8374960100123189 0.0
H H 0.31044271087040387 0.5415704963049782 0.8272660100123189 0.0
C C 0.20942417289047824 0.4586856406195012 0.7733379775826664 0.0
H H 0.23773417289047824 0.46715564061950116 0.7261979775826665 0.0
C C 0.13431419475672202 0.40663041646057674 0.7875770177767025 0.0
C C 0.09605272744810302 0.4045225266562197 0.8493141222738039 0.0
H H 0.03607272744810303 0.37009252665621967 0.861174122273804 0.0
C C 0.12318294847456926 0.44293429629657366 0.8992988091400625 0.0
H H 0.09143294847456925 0.43631429629657364 0.9463788091400626 0.0
Cd Cd -0.30029563581303104 1.0536998886004638 -0.49000203426491173 0.0
O O -0.4140380992922485 0.9635993309634345 -0.552350062375987 0.0
O O -0.22197516957305632 1.0124272192478319 -0.5845969964714196 0.0
O O -0.9029677077645316 1.275646790679457 -0.650487614718307 0.0
O O -0.4100689910752949 1.2644896411673683 -0.7682434389664388 0.0
N N -0.47081363510675917 1.1187258010202021 -0.5711113702011568 0.0
N N -0.6424275050490088 1.259702903996712 -0.696801078858209 0.0
C C -0.29477912636146225 0.9649415540637866 -0.5923412043935824 0.0
C C -0.2839518760917144 0.925133312297613 -0.6533027210958763 0.0
C C -0.1462671558876949 0.9239259151004423 -0.6800163817126693 0.0
H H -0.0713571558876949 0.9547859151004424 -0.6673763817126693 0.0
C C -0.09834670038047694 0.8728363909474072 -0.7428494078373401 0.0
H H 0.0005632996195230813 0.8733963909474072 -0.7645094078373401 0.0
C C -0.2311019779815278 0.8372158313081268 -0.7409735538242785 0.0
C C -0.3330478485655339 0.8324725803767131 -0.7154211290396758 0.0
C C -0.3877266510901945 0.8786499078621917 -0.6688824272803169 0.0
H H -0.48533665109019464 0.8766199078621917 -0.6463524272803169 0.0
C C -0.5549324992152407 1.2898039563963266 -0.761676980348912 0.0
C C -0.8069602202879324 1.2861566726611016 -0.6935333525301908 0.0
C C -0.5769201385406693 1.1684776404072994 -0.550380831448141 0.0
H H -0.6053301385406694 1.1657476404072993 -0.5022508314481411 0.0
C C -0.6322380018750908 1.205644690370071 -0.5761914971292842 0.0
H H -0.703048001875091 1.234014690370071 -0.5576514971292841 0.0
C C -0.5941701046351044 1.210495284376444 -0.6632378079077634 0.0
C C -0.46142304579041843 1.1655056867233167 -0.67652234287887 0.0
H H -0.43311304579041837 1.165675686723317 -0.7246823428788699 0.0
C C -0.4062537996800527 1.1191114051700892 -0.623888480377073 0.0
H H -0.33276379968005276 1.0905814051700893 -0.6402484803770732 0.0
O O -0.2919187204983905 1.1400295055513454 -0.41409220299530347 0.0
O O -0.0844291462451696 1.1200931467763235 -0.4807319328610981 0.0
O O 0.13070886000726112 0.8386635919072039 -0.26440715417165933 0.0
O O -0.3544835194035261 0.8721258582388773 -0.16638258211831325 0.0
N N -0.09188510706960681 0.8669259519762335 -0.23604837648571503 0.0
N N -0.21672513528087578 0.9903937855329437 -0.4034879537164814 0.0
C C -0.12419277512615938 1.1504154577346934 -0.43113829337119114 0.0
C C -0.03999362050723704 1.212740849122133 -0.4112355176687786 0.0
C C 0.09497108689817312 1.2204268401399363 -0.4309809337107482 0.0
H H 0.12918108689817312 1.1956968401399364 -0.4682409337107482 0.0
C C -0.179487852958988 0.7634532535055106 -0.09636103348372738 0.0
H H -0.277897852958988 0.7723232535055107 -0.07662103348372741 0.0
C C -0.15890193662132013 0.8072229024704111 -0.14624193185166587 0.0
C C 0.015423457736258544 0.7858893163863386 -0.17875106431718066 0.0
C C -0.11164845348389943 1.246696403704835 -0.35779465683492007 0.0
H H -0.21213845348389943 1.239266403704835 -0.33905465683492014 0.0
C C -0.21540040627515392 0.8533038154746396 -0.18078273616092333 0.0
C C 0.03912297373453608 0.8336843423371776 -0.2259996681667778 0.0
C C -0.2692194782904183 1.0031499297538296 -0.33782662363699906 0.0
H H -0.32473947829041827 1.0389199297538296 -0.3275966236369991 0.0
C C -0.22403864283950764 0.971451319208737 -0.27102957786289494 0.0
H H -0.25234864283950764 0.9799213192087369 -0.22388957786289498 0.0
C C -0.131624693876879 0.9148022295919471 -0.2969711350526051 0.0
C C -0.09307057971498188 0.9042868802766553 -0.3621047018676225 0.0
H H -0.03309057971498189 0.8698568802766553 -0.37396470186762254 0.0
C C -0.14199074136127296 0.9416567640581474 -0.4143723288390477 0.0
H H -0.11024074136127295 0.9350367640581473 -0.46145232883904763 0.0
Cd Cd -0.32965794827991773 -0.5521090856416517 -0.9802651572324408 0.0
O O -0.43000661105250887 -0.4547564660446236 -1.0564703265964592 0.0
O O -0.2089050612394076 -0.5045367261418207 -1.0783930528835146 0.0
O O -0.9121664869744666 -0.7785324212619906 -1.1656251845638999 0.0
O O -0.4135352377706039 -0.7595101352078312 -1.2611415590984427 0.0
N N -0.46760299170069547 -0.6162796542648404 -1.0595708828287458 0.0
N N -0.6508338132402605 -0.7640266463608802 -1.1992722278523689 0.0
C C -0.31749128235098056 -0.4646763714881808 -1.0846142557151464 0.0
C C -0.28034664272176957 -0.41445451075566425 -1.1510258601335506 0.0
C C -0.15032650258259772 -0.42458972656121685 -1.1712364951401022 0.0
H H -0.07541650258259769 -0.45544972656121685 -1.1585964951401022 0.0
C C -0.10084968067728686 -0.3818884399311118 -1.2204316818078453 0.0
H H -0.0019396806772868417 -0.3824484399311118 -1.2420916818078456 0.0
C C -0.1998947453139036 -0.3377779840307782 -1.2425516904173652 0.0
C C -0.35090198805108597 -0.3396665405208523 -1.2228013140880891 0.0
C C -0.39717267975383574 -0.3788266609542202 -1.161008620996539 0.0
H H -0.49478267975383583 -0.3767966609542202 -1.138478620996539 0.0
C C -0.5360828942828725 -0.7836787092341686 -1.2451690327538507 0.0
C C -0.8059466070744398 -0.7787163576751843 -1.1902746251271776 0.0
C C -0.5631474891668775 -0.6628243225986064 -1.040566132118822 0.0
H H -0.5915574891668776 -0.6600943225986066 -0.9924361321188221 0.0
C C -0.6359375464147363 -0.7076103901207099 -1.086059050324262 0.0
H H -0.7067475464147362 -0.7359803901207099 -1.067519050324262 0.0
C C -0.5639128375554948 -0.7042192394626466 -1.151596501252873 0.0
C C -0.4698884582127839 -0.6709851040696994 -1.1875574988479922 0.0
H H -0.44157845821278396 -0.6711551040696994 -1.2357174988479922 0.0
C C -0.4242186431383906 -0.6291036023497805 -1.1312847478729378 0.0
H H -0.3507286431383906 -0.6005736023497804 -1.1476447478729377 0.0
O O -0.2823658944957702 -0.6344640115977792 -0.9022607536621093 0.0
O O -0.11047721012936991 -0.619681416348383 -0.9893843962243294 0.0
O O 0.15116990191739527 -0.33369918530389564 -0.7512502072158276 0.0
O O -0.3579406529923507 -0.36783011391702924 -0.6669222727010118 0.0
N N -0.0891398362300551 -0.3692021449964712 -0.7288773577855922 0.0
N N -0.21344834908070148 -0.4914903350122242 -0.8965818314948328 0.0
C C -0.12642878275973166 -0.6535845159704275 -0.9433799737483975 0.0
C C -0.03246617990192029 -0.702926429655233 -0.9122313942442382 0.0
C C 0.10762820341623738 -0.7196283501164575 -0.9326245972708346 0.0
H H 0.1418382034162374 -0.6948983501164576 -0.9698845972708344 0.0
C C -0.17862178011403604 -0.27495769579692864 -0.5839682068863284 0.0
H H -0.27703178011403606 -0.2838276957969286 -0.5642282068863285 0.0
C C -0.11714110547238664 -0.2982771043352669 -0.6360203642195407 0.0
C C 0.005570352914898583 -0.29084480060123263 -0.6694600839261741 0.0
C C -0.11189172287311815 -0.7373178743205473 -0.8574960077099669 0.0
H H -0.21238172287311818 -0.7298878743205472 -0.838756007709967 0.0
C C -0.234721830166913 -0.35689908444912455 -0.6738797857547543 0.0
C C 0.032825109745480224 -0.3384679498975142 -0.733613241000351 0.0
C C -0.267659102297182 -0.5062934196924097 -0.831641123817472 0.0
H H -0.323179102297182 -0.5420634196924099 -0.8214111238174719 0.0
C C -0.22343329430628664 -0.4592889694613879 -0.7786217728800969 0.0
H H -0.2517432943062866 -0.4677589694613879 -0.7314817728800971 0.0
C C -0.14854356285207554 -0.4078062725373107 -0.7951090163084358 0.0
C C -0.08337332911549566 -0.3996196865646453 -0.8527707279329381 0.0
H H -0.023393329115495663 -0.3651896865646453 -0.864630727932938 0.0
C C -0.1531382004092477 -0.4452105984312587 -0.9128707900179144 0.0
H H -0.12138820040924768 -0.43859059843125864 -0.9599507900179144 0.0
Cd Cd 0.31556764660721776 -1.0555008540510384 0.4825482778400214 0.0
O O 0.424015988526645 -0.9552886293067673 0.5596433977925319 0.0
O O 0.224250580854811 -1.0096841507606946 0.5730774938012769 0.0
O O 0.8739833637889928 -1.2784709242410026 0.669514210577353 0.0
O O 0.4120697256977804 -1.273351762829546 0.7587681363439365 0.0
N N 0.4734799573345538 -1.1183574882808793 0.5712000241161483 0.0
N N 0.620439890490976 -1.2646819738077157 0.7047404502313263 0.0
C C 0.3093790511621883 -0.96750570893648 0.5843768536154319 0.0
C C 0.26218360561718135 -0.9146491989626371 0.6532646617937923 0.0
C C 0.1271118025412969 -0.9262411983163682 0.6758171768022373 0.0
H H 0.05220180254129689 -0.9571011983163684 0.6631771768022373 0.0
C C 0.11270585364455382 -0.8772898681476881 0.7246829084638746 0.0
H H 0.0137958536445538 -0.8778498681476881 0.7463429084638745 0.0
C C 0.21862691773062076 -0.8342916364380525 0.7552700253354112 0.0
C C 0.3448559928774941 -0.8411471975597388 0.7095050313290144 0.0
C C 0.4017690357015923 -0.8800720987746483 0.6675722741185327 0.0
H H 0.49937903570159237 -0.8780420987746483 0.6450422741185328 0.0
C C 0.5500943248518332 -1.2797908638813957 0.7636173230983337 0.0
C C 0.7818617517182024 -1.2833761501966965 0.7028432968729634 0.0
C C 0.5578760812149149 -1.1591756967829778 0.5493020809649309 0.0
H H 0.5862860812149151 -1.1564456967829777 0.5011720809649312 0.0
C C 0.6429776675942545 -1.2072639788140909 0.576882685387213 0.0
H H 0.7137876675942546 -1.235633978814091 0.5583426853872129 0.0
C C 0.5657202182634546 -1.216534725062571 0.6646708837544564 0.0
C C 0.4955383624949386 -1.1660941735698351 0.6751361471375881 0.0
H H 0.46722836249493854 -1.1662641735698351 0.7232961471375879 0.0
C C 0.43383503687002917 -1.1311832943466942 0.6374281224610455 0.0
H H 0.36034503687002917 -1.1026532943466942 0.6537881224610457 0.0
O O 0.2702786570844732 -1.1463562880014828 0.40682781120660827 0.0
O O 0.08211740764615678 -1.1172444719737613 0.48946583628331825 0.0
O O -0.16594934219354066 -0.8290337557996469 0.2664645183409249 0.0
O O 0.3484812422778775 -0.8855348312265645 0.1730651432859434 0.0
N N 0.10989343443401106 -0.8610763698856254 0.23491451588194973 0.0
N N 0.21090572750794023 -1.0002532464240121 0.40000662524743197 0.0
C C 0.1269472587071809 -1.1477438687019792 0.4335311396590706 0.0
C C 0.044943500413902396 -1.2026120694868494 0.4005958995275996 0.0
C C -0.08346201081789956 -1.217369805600742 0.44576445795062347 0.0
H H -0.11767201081789956 -1.1926398056007421 0.48302445795062343 0.0
C C 0.20069289207655186 -0.7586109283023439 0.09751365234086223 0.0
H H 0.2991028920765519 -0.7674809283023439 0.07777365234086225 0.0
C C 0.1292327634373085 -0.8044208585174561 0.14859415611244384 0.0
C C -0.017614573018957157 -0.7903178570286248 0.17732755048308224 0.0
C C 0.10139758351439088 -1.250302365262962 0.3566205966980513 0.0
H H 0.20188758351439084 -1.242872365262962 0.3378805966980513 0.0
C C 0.192947915641013 -0.8444787044399653 0.19045145872592711 0.0
C C -0.048934706571290135 -0.828712452633183 0.23328866445871213 0.0
C C 0.2536122246480945 -1.0022670665202897 0.3341914292614301 0.0
H H 0.30913222464809453 -1.0380370665202898 0.3239614292614301 0.0
C C 0.2096027750800686 -0.9591792081018219 0.2756914043547805 0.0
H H 0.2379127750800686 -0.9676492081018219 0.22855140435478052 0.0
C C 0.12745072485472414 -0.9146327078714657 0.28615279919033865 0.0
C C 0.10200293500181772 -0.8996485261182648 0.36042059576849594 0.0
H H 0.04202293500181771 -0.865218526118265 0.372280595768496 0.0
C C 0.1596574490156676 -0.9494329723130509 0.4113344604085802 0.0
H H 0.12790744901566758 -0.9428129723130508 0.4584144604085801 0.0
