_cell_length_a 8.39304
_cell_length_b 22.23511
_cell_length_c 18.74218
_cell_angle_alpha 90.0
_cell_angle_beta 94.0312
_cell_angle_gamma 90.0
_symmetry_space_group_name_H-M         'P 1'
_symmetry_Int_Tables_number            1
loop_
_symmetry_equiv_pos_as_xyz
   'x, y, z'
                         
loop_
_atom_site_label
_atom_site_type_symbol
_atom_site_fract_x 
_atom_site_fract_y
_atom_site_fract_z
_atom_site_charge
Cd Cd 0.32901883251281383 0.558056985228298 0.9849197848293155 0.0
O O 0.4353683766121039 0.45497245713783235 1.0558328511112907 0.0
O O 0.20558529060923053 0.5076198417255872 1.0750952160905076 0.0
O O 0.8922268950792571 0.7606956474421623 1.1483959176357776 0.0
O O 0.4093411482268193 0.7754695585514049 1.2717561995146407 0.0
N N 0.4712235632654227 0.6238473421656787 1.0657566176270035 0.0
N N 0.6207472710964402 0.7588156837684713 1.1987174854941984 0.0
C C 0.30372659429736276 0.46943942945442696 1.0871504924608735 0.0
C C 0.26449344502491523 0.41338955169581154 1.15068775426248 0.0
C C 0.15064378096759656 0.4247050957168282 1.175634054386651 0.0
H H 0.07573378096759655 0.4555650957168282 1.162994054386651 0.0
C C 0.10411653046989265 0.3870040159620064 1.2282090196607127 0.0
H H 0.00520653046989264 0.3875640159620064 1.2498690196607127 0.0
C C 0.19733714977883166 0.3329694592184168 1.2455941583624774 0.0
C C 0.336775404233807 0.33145221177143724 1.2101816852898006 0.0
C C 0.38953605555619936 0.3776524079529858 1.171432761599279 0.0
H H 0.48714605555619944 0.37562240795298585 1.148902761599279 0.0
C C 0.5308296759482809 0.7878330068026902 1.2587024061985737 0.0
C C 0.8107495102235013 0.7953559398374994 1.2059701118727242 0.0
C C 0.5656471524573462 0.6630084811409488 1.0502574694092583 0.0
H H 0.5940571524573462 0.6602784811409489 1.0021274694092583 0.0
C C 0.6245776510009619 0.7134964267699205 1.0905247310508335 0.0
H H 0.6953876510009619 0.7418664267699203 1.0719847310508335 0.0
C C 0.579565788331545 0.7149512853856975 1.146142320139976 0.0
C C 0.4636720518854521 0.6657579918276578 1.1849866001791582 0.0
H H 0.43536205188545213 0.6659279918276578 1.2331466001791584 0.0
C C 0.42833443025024115 0.6266701512922035 1.1308582369741007 0.0
H H 0.35484443025024115 0.5981401512922035 1.1472182369741009 0.0
O O 0.25395731901721 0.64049449863753 0.9124267027965255 0.0
O O 0.088051145401897 0.6215026324584308 0.9812076651467511 0.0
O O -0.15165664678906618 0.3334283681243303 0.7580732459292369 0.0
O O 0.3217473471886771 0.36979041884325803 0.6854476859515339 0.0
N N 0.11541567319939941 0.3736152941777063 0.7299114510099175 0.0
N N 0.20810650757284851 0.49974139982774896 0.8965644460252051 0.0
C C 0.12181440144904665 0.6508834477324612 0.935217329528647 0.0
C C 0.02762430665086017 0.7052616637704903 0.9148217223580516 0.0
C C -0.09184380894879324 0.7211174405656301 0.9416864482092928 0.0
H H -0.1260538089487933 0.6963874405656301 0.9789464482092927 0.0
C C 0.18100970325148436 0.2722856815931471 0.5962951460741523 0.0
H H 0.27941970325148435 0.2811556815931471 0.5765551460741524 0.0
C C 0.1319306318554151 0.2977448116095269 0.6408610843578852 0.0
C C -0.017282515616832864 0.2869942653612237 0.6640223337228065 0.0
C C 0.12224925445871955 0.7371418858303534 0.8616274937639482 0.0
H H 0.2227392544587196 0.7297118858303535 0.8428874937639483 0.0
C C 0.2375178836409096 0.3498465064814077 0.6750558635507474 0.0
C C -0.052692551040516504 0.32622094720480405 0.7266413759954399 0.0
C C 0.25429158558445136 0.5055199503658863 0.8221192712157606 0.0
H H 0.3098115855844513 0.5412899503658863 0.8118892712157605 0.0
C C 0.21212257704427853 0.4661858324879443 0.7786018866612696 0.0
H H 0.24043257704427853 0.4746558324879443 0.7314618866612697 0.0
C C 0.15677734946660024 0.41197759883972296 0.7901757722962182 0.0
C C 0.1039662539225362 0.4090787424576777 0.8557739444807476 0.0
H H 0.0439862539225362 0.37464874245767776 0.8676339444807478 0.0
C C 0.14686491188598022 0.4461260379863965 0.9025018843574417 0.0
H H 0.11511491188598022 0.4395060379863965 0.9495818843574417 0.0
Cd Cd -0.3135717220031183 1.054238830702739 -0.48520863121465674 0.0
O O -0.42088926599741455 0.9647685056369528 -0.5506433047189001 0.0
O O -0.18901495793713 1.0098288227509231 -0.5712864657252371 0.0
O O -0.8845498643565226 1.2644495767691863 -0.6589068819856149 0.0
O O -0.44264970551222493 1.2742265133414845 -0.780145580781335 0.0
N N -0.45069995331031537 1.126578222747763 -0.5708039661755931 0.0
N N -0.6308121848059582 1.2616722353946341 -0.708357158668644 0.0
C C -0.31509419905235075 0.9650969060399787 -0.5849832830903403 0.0
C C -0.28815644041093075 0.9245785221346333 -0.6543668973600951 0.0
C C -0.13710238895236943 0.9299712729748488 -0.6760716900486597 0.0
H H -0.06219238895236942 0.960831272974849 -0.6634316900486598 0.0
C C -0.09225135938493143 0.8758171799130031 -0.7345327518010483 0.0
H H 0.0066586406150686015 0.8763771799130031 -0.7561927518010483 0.0
C C -0.21011830331911238 0.8328143842991943 -0.7449139841932948 0.0
C C -0.36681975339812023 0.8310209998917344 -0.7117009543247985 0.0
C C -0.38671046133484777 0.8734651741421794 -0.6688765454362384 0.0
H H -0.48432046133484785 0.8714351741421794 -0.6463465454362384 0.0
C C -0.5475614236210431 1.2932580502993827 -0.7549102671378578 0.0
C C -0.8008501920635367 1.2802960801799204 -0.7090119549849462 0.0
C C -0.5394027567585278 1.1562139279256078 -0.5361554621816601 0.0
H H -0.5678127567585278 1.1534839279256077 -0.48802546218166026 0.0
C C -0.6439302531649167 1.212348295796649 -0.591232246156954 0.0
H H -0.7147402531649169 1.240718295796649 -0.5726922461569539 0.0
C C -0.5679168631307908 1.2092569474112291 -0.6563973586314293 0.0
C C -0.5026706737283002 1.1616779030912907 -0.6750051020788168 0.0
H H -0.47436067372830015 1.1618479030912907 -0.7231651020788167 0.0
C C -0.40334887440835393 1.130778151673655 -0.6320856897667155 0.0
H H -0.32985887440835393 1.102248151673655 -0.6484456897667158 0.0
O O -0.269439654867661 1.1401647688033283 -0.41350318446985174 0.0
O O -0.07300958692922097 1.1294942577146605 -0.4834466700141586 0.0
O O 0.12771720688316354 0.8412935487746832 -0.25897422827815114 0.0
O O -0.32712529219905134 0.8773602303455926 -0.17192208129273737 0.0
N N -0.1038780259818348 0.8710473780503772 -0.2310465698988259 0.0
N N -0.23965364635225064 0.9973567979758239 -0.40064529222157863 0.0
C C -0.14764575791031226 1.1492130412045194 -0.4415343247461996 0.0
C C -0.05300606470685449 1.203807182522413 -0.4039983087726189 0.0
C C 0.11707534979586694 1.2216924148218768 -0.4430049378678207 0.0
H H 0.1512853497958669 1.196962414821877 -0.48026493786782065 0.0
C C -0.209507149292509 0.7585066915523594 -0.09905364843810198 0.0
H H -0.30791714929250896 0.7673766915523594 -0.07931364843810201 0.0
C C -0.15549833436761898 0.7999294921457215 -0.1348809262098786 0.0
C C 0.029372653194188324 0.7880962254000413 -0.16468242820128656 0.0
C C -0.08309580842963583 1.2390691322102354 -0.35829390419220974 0.0
H H -0.18358580842963582 1.2316391322102356 -0.33955390419220977 0.0
C C -0.21146405296500004 0.8569502317056222 -0.18291555964601172 0.0
C C 0.04121838486372106 0.8330672647085201 -0.23660533775070514 0.0
C C -0.2487715841659678 1.0077629984258467 -0.3204449001464896 0.0
H H -0.3042915841659678 1.0435329984258468 -0.3102149001464896 0.0
C C -0.2202669782443326 0.9690319591578517 -0.2806347727153855 0.0
H H -0.24857697824433264 0.9775019591578517 -0.23349477271538552 0.0
C C -0.15752041981041662 0.9065292206088604 -0.28716224509287236 0.0
C C -0.11172930506747586 0.9066126359317935 -0.36638489381151906 0.0
H H -0.051749305067475874 0.8721826359317936 -0.37824489381151905 0.0
C C -0.13633541050236384 0.9416836755596183 -0.4067165587965879 0.0
H H -0.10458541050236381 0.9350636755596183 -0.4537965587965878 0.0
Cd Cd -0.3118408299738567 -0.5587926800981052 -0.9894149271347622 0.0
O O -0.42601170784977344 -0.4651771328979348 -1.0505141770307753 0.0
O O -0.19542754165457907 -0.5118115069206963 -1.0718220201892255 0.0
O O -0.8917111200492513 -0.776651744201057 -1.1764729603089499 0.0
O O -0.40674058178741884 -0.7589430166671759 -1.2639407525529645 0.0
N N -0.43880303942371596 -0.6175626710241776 -1.0651793746672593 0.0
N N -0.6573379615992052 -0.7520409826494024 -1.1993393044822438 0.0
C C -0.30297813530605794 -0.46332331754283257 -1.0844498930150308 0.0
C C -0.2651345104984189 -0.42003368547100794 -1.1427375243783788 0.0
C C -0.11317115093398077 -0.43109622157673605 -1.1790503494879572 0.0
H H -0.03826115093398073 -0.4619562215767361 -1.1664103494879572 0.0
C C -0.08155684999081995 -0.3717978862594957 -1.2235937676401891 0.0
H H 0.01735315000918008 -0.37235788625949573 -1.2452537676401891 0.0
C C -0.1899092873097997 -0.3374427739006466 -1.2508846563452862 0.0
C C -0.3361357320459678 -0.33864479689807 -1.2119131128139704 0.0
C C -0.3855015883487418 -0.37931147790700465 -1.1729291393829895 0.0
H H -0.4831115883487419 -0.3772814779070046 -1.1503991393829893 0.0
C C -0.5577464409513816 -0.7872456694669331 -1.247453886572801 0.0
C C -0.7918540550343897 -0.7786675850474417 -1.1990083383325774 0.0
C C -0.5625293875694347 -0.660988245785068 -1.045003815598988 0.0
H H -0.5909393875694348 -0.6582582457850682 -0.9968738155989881 0.0
C C -0.6395887925685608 -0.702703053899607 -1.0810639666524693 0.0
H H -0.7103987925685609 -0.7310730538996068 -1.0625239666524693 0.0
C C -0.5958663245903979 -0.7111674053400013 -1.1604786239210088 0.0
C C -0.4822152253297798 -0.6738496157822317 -1.1720112193673886 0.0
H H -0.4539052253297798 -0.6740196157822317 -1.2201712193673888 0.0
C C -0.43802305360559585 -0.6301693085090432 -1.126887423043665 0.0
H H -0.3645330536055958 -0.6016393085090432 -1.1432474230436651 0.0
O O -0.2658086889818605 -0.6469436278185687 -0.907542163016602 0.0
O O -0.0937467022013254 -0.6230055171728507 -0.9863825382000144 0.0
O O 0.15214891890190607 -0.3461151602251246 -0.75650162573412 0.0
O O -0.3497116039325052 -0.3739169082098753 -0.674498288908348 0.0
N N -0.11458139099765131 -0.36262199450940513 -0.7286283740636483 0.0
N N -0.23414652178509754 -0.5005879996372691 -0.9011776895224464 0.0
C C -0.12933972573846542 -0.6543573621169979 -0.9332998174955677 0.0
C C -0.06794399026426123 -0.7113874778405189 -0.9150962665230429 0.0
C C 0.07736160578640654 -0.7116696753639521 -0.9352154465190504 0.0
H H 0.11157160578640657 -0.6869396753639522 -0.9724754465190503 0.0
C C -0.1974404879133328 -0.2745645288797989 -0.5887404971098494 0.0
H H -0.2958504879133328 -0.28343452887979886 -0.5690004971098495 0.0
C C -0.14216455329944505 -0.30292744853738346 -0.6471939905469299 0.0
C C -0.002243604631695085 -0.29318266638180474 -0.6620822655052921 0.0
C C -0.09839140862684158 -0.7402703803119363 -0.8563655412118456 0.0
H H -0.1988814086268416 -0.7328403803119362 -0.8376255412118456 0.0
C C -0.20215235151250466 -0.3435718462703987 -0.6808522948824866 0.0
C C 0.04250743934467452 -0.3365599814437936 -0.7390639345806548 0.0
C C -0.2769260742504906 -0.5074128537540484 -0.830007547236609 0.0
H H -0.3324460742504906 -0.5431828537540486 -0.819777547236609 0.0
C C -0.219343080756332 -0.4572897279729309 -0.7785550119776798 0.0
H H -0.247653080756332 -0.46575972797293086 -0.7314150119776799 0.0
C C -0.14409470034143396 -0.4138398190732304 -0.7964119681804245 0.0
C C -0.0874853440238752 -0.40199360286406627 -0.8481969435947269 0.0
H H -0.02750534402387522 -0.36756360286406625 -0.8600569435947271 0.0
C C -0.12850473938293794 -0.44085792210550323 -0.8992467990776859 0.0
H H -0.09675473938293792 -0.43423792210550316 -0.9463267990776859 0.0
Cd Cd 0.3238007335563886 -1.0585011667185011 0.48937720388251066 0.0
O O 0.43173847276752186 -0.9552646744745189 0.5533992545541071 0.0
O O 0.22342416628430659 -1.0084823786360149 0.5701989641497666 0.0
O O 0.8864674658278772 -1.2770042418348122 0.6660874956407382 0.0
O O 0.4291644684035654 -1.2774703493310018 0.776855736715365 0.0
N N 0.4690565776605586 -1.119738099554535 0.5655595329355757 0.0
N N 0.6290611738110737 -1.2503283528230706 0.6992464197931053 0.0
C C 0.30981822388693864 -0.9606557250426998 0.5878898246164788 0.0
C C 0.2871109969634577 -0.9170219564835977 0.6463347345836018 0.0
C C 0.13894269399606107 -0.9315539112648485 0.6841152477649377 0.0
H H 0.06403269399606108 -0.9624139112648487 0.6714752477649377 0.0
C C 0.1002657809887726 -0.8782010310842081 0.7302176709506817 0.0
H H 0.0013557809887725734 -0.8787610310842081 0.7518776709506817 0.0
C C 0.1923274683116237 -0.8442943243360704 0.7543885951525887 0.0
C C 0.3683357006736728 -0.8421630445964217 0.723492118096117 0.0
C C 0.40227293998664215 -0.8801269767009274 0.6726593457566548 0.0
H H 0.49988293998664224 -0.8780969767009275 0.6501293457566547 0.0
C C 0.5364647580998977 -1.2791570736232476 0.7400384885122819 0.0
C C 0.7931495608957336 -1.281372239173792 0.6970943714236996 0.0
C C 0.5604845516445381 -1.1649962030938525 0.5376894120079427 0.0
H H 0.5888945516445383 -1.1622662030938524 0.4895594120079429 0.0
C C 0.6143029785021458 -1.2055712047818976 0.5840448656988352 0.0
H H 0.6851129785021459 -1.2339412047818976 0.5655048656988352 0.0
C C 0.5886147961606346 -1.2043666429594824 0.6574002255908584 0.0
C C 0.45626275582400705 -1.1742785797689754 0.6805338816729198 0.0
H H 0.427952755824007 -1.1744485797689754 0.7286938816729197 0.0
C C 0.40401296341507037 -1.1209954981380437 0.6384349869264924 0.0
H H 0.3305229634150703 -1.0924654981380437 0.6547949869264926 0.0
O O 0.2540422681621254 -1.1409816257054897 0.4166132717010663 0.0
O O 0.09121899310157544 -1.1204548117368411 0.4806034080827341 0.0
O O -0.1336028804445995 -0.84571732306066 0.271286398455655 0.0
O O 0.34973308553176813 -0.8716871666915552 0.1723272643809611 0.0
N N 0.09562880974636875 -0.8685221723764891 0.2391697839300943 0.0
N N 0.2200088932512333 -1.0000796336493276 0.39940811062611287 0.0
C C 0.12865206816346306 -1.1510692318834874 0.4410250044007727 0.0
C C 0.05594230373833333 -1.2126729837914207 0.4012123553479721 0.0
C C -0.11722988587001461 -1.2208978410658498 0.42940163177024376 0.0
H H -0.15143988587001458 -1.1961678410658498 0.4666616317702438 0.0
C C 0.19725524172831388 -0.7637097510613169 0.08755674758680641 0.0
H H 0.29566524172831393 -0.7725797510613169 0.06781674758680643 0.0
C C 0.1275676438831868 -0.8008083850618619 0.14823306259994937 0.0
C C -0.01187023111828112 -0.7820933257626032 0.16529917773678085 0.0
C C 0.0905693070755404 -1.235723783544045 0.3539617516250429 0.0
H H 0.1910593070755404 -1.228293783544045 0.3352217516250429 0.0
C C 0.20224302182668605 -0.8510410088587861 0.18340512223385366 0.0
C C -0.04643746443004068 -0.8348016225923582 0.22791774039360693 0.0
C C 0.26446078141145557 -1.0058968112720663 0.3234111951377659 0.0
H H 0.3199807814114556 -1.0416668112720664 0.31318119513776593 0.0
C C 0.2195162996187318 -0.9595911606649187 0.27946966876025336 0.0
H H 0.24782629961873184 -0.9680611606649187 0.23232966876025338 0.0
C C 0.14267090151605913 -0.9194916922773738 0.28003440633113114 0.0
C C 0.0983439304874109 -0.9047113607864045 0.35283406214564256 0.0
H H 0.03836393048741091 -0.8702813607864045 0.36469406214564254 0.0
C C 0.12721153930683715 -0.9516767330221174 0.4085344259511388 0.0
H H 0.09546153930683714 -0.9450567330221173 0.45561442595113877 0.0
