_cell_length_a 11.045
_cell_length_b 11.045
_cell_length_c 8.163
_cell_angle_alpha 90.0
_cell_angle_beta 90.0
_cell_angle_gamma 90.0
_symmetry_space_group_name_H-M         'P 1'
_symmetry_Int_Tables_number            1
loop_
_symmetry_equiv_pos_as_xyz
   'x, y, z'
                         
loop_
_atom_site_label
_atom_site_type_symbol
_atom_site_fract_x 
_atom_site_fract_y
_atom_site_fract_z
_atom_site_charge
C C 0.2696725168516496 0.4424492960225652 0.41418357340106116 0.0
C C 0.13470069906244891 0.44413302064404997 0.3544093717745522 0.0
C C 0.7327406463136692 0.6142152738684394 0.36871875317563957 0.0
C C 0.8667137178518922 0.5591335056949259 0.37963214946227686 0.0
C C 0.5251916382499472 0.2994585160681216 0.34085250921849825 0.0
C C 0.5524150387339838 0.14751013168408217 0.3946634360612699 0.0
C C 0.47616093674587473 0.7393103279605949 0.33178065392336104 0.0
C C 0.4674681878857765 0.9336524586182394 0.30264018323555525 0.0
C C 0.7464460310984855 0.4841272477265915 0.5843605219216237 0.0
C C 0.8659106413176846 0.43718026947352095 0.6446478996978895 0.0
C C 0.2717590975655667 0.5761191817620883 0.6147003429034334 0.0
C C 0.16859432564281013 0.5673474470856709 0.6318528912406124 0.0
C C 0.4320596744699226 0.26332651696705806 0.5962221123250869 0.0
C C 0.4979772951561242 0.0962176355937143 0.6022464033905085 0.0
C C 0.5610456595506379 0.6972628355431643 0.6125027439766136 0.0
C C 0.548554775772294 0.8514529713267642 0.615904713403515 0.0
C C 0.050493540357508346 0.5096527135310113 0.5711849254712089 0.0
C C 0.9128908712177874 0.5074533725951672 0.5464586093780673 0.0
C C 0.48057915691178965 0.06908228395934497 0.544188643302325 0.0
C C 0.49572135438564674 0.9360427784699693 0.5037926948373794 0.0
H H 0.3238415168516496 0.41048529602256517 0.3108805734010611 0.0
H H 0.08802869906244895 0.40805002064405 0.24747937177455215 0.0
H H 0.6785716463136693 0.6461792738684395 0.2654157531756395 0.0
H H 0.913385717851892 0.595216505694926 0.27270214946227683 0.0
H H 0.5571556382499472 0.3536275160681216 0.23754950921849818 0.0
H H 0.588498038733984 0.10083813168408219 0.2877334360612699 0.0
H H 0.4441969367458747 0.6851413279605949 0.228477653923361 0.0
H H 0.43138518788577657 0.9803244586182392 0.19571018323555522 0.0
H H 0.6922770310984856 0.45216324772659133 0.6876635219216236 0.0
H H 0.9125826413176844 0.40109726947352103 0.7515778996978895 0.0
H H 0.32592809756556673 0.6080831817620884 0.7180033429034334 0.0
H H 0.12192232564281015 0.603430447085671 0.7387828912406124 0.0
H H 0.4000956744699225 0.31749551696705797 0.6995251123250869 0.0
H H 0.46189429515612423 0.04954563559371431 0.7091764033905085 0.0
H H 0.5930096595506379 0.6430938355431642 0.7158057439766137 0.0
H H 0.584637775772294 0.898124971326764 0.722834713403515 0.0
Cu Cu 0.493065766068724 0.4893791765456678 0.5064463468372878 0.0
Si Si 0.4925384162942691 0.4928108965766563 -0.0173158901014575 0.0
F F 0.47872949170270923 0.4798557272440601 0.8150830496151945 0.0
F F 0.5100681386048296 0.4999172244773842 0.19519356619717831 0.0
F F 0.397095179140254 0.3749139342941471 -0.02885374981942845 0.0
F F 0.5757246343457557 0.5940406978018496 0.08561385350469351 0.0
F F 0.624098721016885 0.39410521871664905 0.040009511305985734 0.0
F F 0.39698636532073706 0.6079355280665606 0.06280727092074039 0.0
N N 0.3367675030283583 0.502889172448981 0.5648491459658482 0.0
N N 0.6566189393455709 0.5034126917050636 0.5028033955494566 0.0
N N 0.5133570461100466 0.3204767612730897 0.4884483493311496 0.0
N N 0.4933401200600534 0.6869243958199147 0.4879179359436598 0.0
