_cell_length_a 11.045
_cell_length_b 11.045
_cell_length_c 8.163
_cell_angle_alpha 90.0
_cell_angle_beta 90.0
_cell_angle_gamma 90.0
_symmetry_space_group_name_H-M         'P 1'
_symmetry_Int_Tables_number            1
loop_
_symmetry_equiv_pos_as_xyz
   'x, y, z'
                         
loop_
_atom_site_label
_atom_site_type_symbol
_atom_site_fract_x 
_atom_site_fract_y
_atom_site_fract_z
_atom_site_charge
C C 0.2833515278930828 0.4297154805469708 0.36180010065284196 0.0
C C 0.13204483821665444 0.5301877304437924 0.32415411511630904 0.0
C C 0.7432649189592814 0.5434796596886011 0.40971664979042094 0.0
C C 0.8561668843377815 0.5538028865622011 0.3474489677224998 0.0
C C 0.5640624824141759 0.30632147280238886 0.3283797707079453 0.0
C C 0.566539384458829 0.1754857922818624 0.35607081737641233 0.0
C C 0.4427602286508441 0.7171999159387509 0.398848627405403 0.0
C C 0.4461319334977158 0.9800965346738582 0.2974757610133057 0.0
C C 0.7463372868336573 0.44931058281518294 0.6398679744960731 0.0
C C 0.8759241589835883 0.3774230025072046 0.6249881670670595 0.0
C C 0.2404804668949238 0.5901683424462021 0.6122981621662178 0.0
C C 0.12044201324594671 0.5134564802953266 0.6684901778699407 0.0
C C 0.4326409965048285 0.21215519739556657 0.6575367247268131 0.0
C C 0.4626595182825085 0.18173715578802307 0.6685208154613096 0.0
C C 0.5463934701283159 0.7003965361811659 0.5985325669446174 0.0
C C 0.545588176940583 0.8864337871434503 0.6381465718757617 0.0
C C 0.08327900291930108 0.547359232403824 0.5331585577007081 0.0
C C 0.9143133351783564 0.5182437842589053 0.4345492966397934 0.0
C C 0.5133254418765089 0.026904279195279285 0.516324777730268 0.0
C C 0.5146657229236936 0.8915221056348606 0.4627005556767416 0.0
H H 0.3375205278930828 0.3977514805469707 0.2584971006528419 0.0
H H 0.08537283821665446 0.4941047304437925 0.217224115116309 0.0
H H 0.6890959189592815 0.5754436596886012 0.3064136497904209 0.0
H H 0.9028388843377815 0.5898858865622012 0.24051896772249978 0.0
H H 0.5960264824141759 0.36049047280238883 0.22507677070794524 0.0
H H 0.6026223844588291 0.12881379228186243 0.2491408173764123 0.0
H H 0.41079622865084403 0.6630309159387509 0.29554562740540297 0.0
H H 0.4100489334977158 1.026768534673858 0.1905457610133057 0.0
H H 0.6921682868336572 0.4173465828151829 0.7431709744960731 0.0
H H 0.9225961589835882 0.34134000250720464 0.7319181670670595 0.0
H H 0.2946494668949237 0.6221323424462021 0.7156011621662177 0.0
H H 0.07377001324594672 0.5495394802953267 0.7754201778699407 0.0
H H 0.40067699650482846 0.2663241973955665 0.760839724726813 0.0
H H 0.4265765182825086 0.13506515578802308 0.7754508154613096 0.0
H H 0.578357470128316 0.646227536181166 0.7018355669446174 0.0
H H 0.5816711769405831 0.9331057871434502 0.7450765718757617 0.0
Cu Cu 0.4918174563226727 0.5029198742661612 0.5014290273144646 0.0
Si Si 0.5205242625725007 0.49162132713683976 0.003684443581380137 0.0
F F 0.49122951239749935 0.5157188351020278 0.7636408357319672 0.0
F F 0.48109262299484684 0.5206895253406024 0.2536083493576643 0.0
F F 0.3833266379279515 0.38816747720884903 -0.06552276314197521 0.0
F F 0.6290258541499826 0.6108229172230514 0.005783649300138601 0.0
F F 0.6277503417853165 0.38693347788733096 -0.017053724270809752 0.0
F F 0.37933136504649234 0.5965080816250996 0.06526024945382461 0.0
N N 0.33011251975737865 0.4931746870765771 0.5613185496197399 0.0
N N 0.6842505179832507 0.5215177693229682 0.5012603979623149 0.0
N N 0.504621148213637 0.31109214724757406 0.5252934341466757 0.0
N N 0.490433112006731 0.6719980321358905 0.4663051044370751 0.0
