_cell_length_a 11.045
_cell_length_b 11.045
_cell_length_c 8.163
_cell_angle_alpha 90.0
_cell_angle_beta 90.0
_cell_angle_gamma 90.0
_symmetry_space_group_name_H-M         'P 1'
_symmetry_Int_Tables_number            1
loop_
_symmetry_equiv_pos_as_xyz
   'x, y, z'
                         
loop_
_atom_site_label
_atom_site_type_symbol
_atom_site_fract_x 
_atom_site_fract_y
_atom_site_fract_z
_atom_site_charge
C C 0.2634867670427553 0.4810354805191882 0.4177866942977107 0.0
C C 0.17023781440144034 0.4606416892905178 0.3440405565493507 0.0
C C 0.7515507496128926 0.5239329091292717 0.39463035928141726 0.0
C C 0.834993938056331 0.6040870962886069 0.4054050397516261 0.0
C C 0.5287254443927436 0.22917878086286472 0.38643539841167845 0.0
C C 0.5499745235245797 0.13591196646659634 0.3642657228736308 0.0
C C 0.4612301844244046 0.6918141950875004 0.3334027261026943 0.0
C C 0.4429333951302269 0.8654152981610734 0.3868345612486151 0.0
C C 0.7478329639607728 0.3907688398329134 0.648461295918385 0.0
C C 0.885961130895143 0.47971455202941593 0.6345398649099964 0.0
C C 0.2783268475749651 0.5785622424354955 0.6320487050882926 0.0
C C 0.09522070340721023 0.615974558799343 0.6592033187658288 0.0
C C 0.4449344018105433 0.26155229430590066 0.6348115254354847 0.0
C C 0.4622319517667865 0.11993537001141696 0.5923092185732746 0.0
C C 0.5508799411701019 0.7639290558383044 0.6475520733851878 0.0
C C 0.5388604190284451 0.8317683999333321 0.6534384326818335 0.0
C C 0.052731513802191966 0.4778570272728238 0.5124707386960713 0.0
C C 0.9105900202981059 0.5957854368869971 0.44337963766452154 0.0
C C 0.4802844196466228 0.08636272904213554 0.5122810967800263 0.0
C C 0.5110477963467478 0.9559659782291184 0.5498316392148281 0.0
H H 0.31765576704275533 0.44907148051918816 0.31448369429771067 0.0
H H 0.12356581440144035 0.4245586892905179 0.23711055654935068 0.0
H H 0.6973817496128926 0.5558969091292718 0.2913273592814172 0.0
H H 0.8816659380563309 0.640170096288607 0.2984750397516261 0.0
H H 0.5606894443927436 0.2833477808628647 0.2831323984116784 0.0
H H 0.5860575235245797 0.08923996646659635 0.25733572287363077 0.0
H H 0.42926618442440456 0.6376451950875004 0.23009972610269425 0.0
H H 0.4068503951302269 0.9120872981610734 0.27990456124861507 0.0
H H 0.6936639639607728 0.3588048398329133 0.751764295918385 0.0
H H 0.9326331308951428 0.44363155202941595 0.7414698649099963 0.0
H H 0.3324958475749651 0.6105262424354956 0.7353517050882925 0.0
H H 0.04854870340721022 0.6520575587993431 0.7661333187658287 0.0
H H 0.41297040181054323 0.3157212943059007 0.7381145254354846 0.0
H H 0.42614895176678647 0.07326337001141697 0.6992392185732745 0.0
H H 0.582843941170102 0.7097600558383044 0.7508550733851878 0.0
H H 0.5749434190284451 0.8784403999333318 0.7603684326818335 0.0
Cu Cu 0.5070954682572489 0.5296140431908511 0.4570700572437428 0.0
Si Si 0.5036735451538211 0.5263264902391799 -0.008328455871001271 0.0
F F 0.4990236099142567 0.49911362563488076 0.7496054457536029 0.0
F F 0.4818354088116513 0.513676305316583 0.2927734871986472 0.0
F F 0.40540591337594867 0.37523668950532574 -0.05556067409474139 0.0
F F 0.6210243537591379 0.6240918738875484 -0.03320517036659451 0.0
F F 0.5849393484079828 0.39696411217119754 0.06904078012313558 0.0
F F 0.37849212548253985 0.6162545268170128 -0.012528867844116446 0.0
N N 0.3197595298097148 0.5013128830444047 0.5085487487201059 0.0
N N 0.6998553107735481 0.47081846610327766 0.4717074847310774 0.0
N N 0.4739180477740788 0.3149754686369934 0.5045910877615775 0.0
N N 0.5096433426319744 0.6851542390465868 0.5012346678008472 0.0
