_cell_length_a 11.045
_cell_length_b 11.045
_cell_length_c 8.163
_cell_angle_alpha 90.0
_cell_angle_beta 90.0
_cell_angle_gamma 90.0
_symmetry_space_group_name_H-M         'P 1'
_symmetry_Int_Tables_number            1
loop_
_symmetry_equiv_pos_as_xyz
   'x, y, z'
                         
loop_
_atom_site_label
_atom_site_type_symbol
_atom_site_fract_x 
_atom_site_fract_y
_atom_site_fract_z
_atom_site_charge
C C 0.2825917734048387 0.4350435050739294 0.4298941409757305 0.0
C C 0.09325170898103612 0.4921335810418372 0.3660748490238684 0.0
C C 0.7814187294752168 0.5735196357984383 0.36348535795438497 0.0
C C 0.8676954540221038 0.635045193311761 0.35246784178552354 0.0
C C 0.5141036505586243 0.2154286348926761 0.36263610207238867 0.0
C C 0.5643040070037241 0.09212194981553133 0.38115715621011015 0.0
C C 0.4664232481449925 0.7223017487979746 0.3985872088283282 0.0
C C 0.4650744234946277 0.8452583619199546 0.37781456736339464 0.0
C C 0.7328225687380513 0.42218098491615064 0.6754031881510603 0.0
C C 0.8827947919706985 0.48307346343630664 0.548865369406018 0.0
C C 0.2678957984251471 0.5194989452813299 0.6398850836597612 0.0
C C 0.13466658760403805 0.5979871065667113 0.5860322051270505 0.0
C C 0.4632391018344109 0.23257683404218182 0.5878331734007556 0.0
C C 0.49186031787527223 0.1645816716397136 0.6109616538515429 0.0
C C 0.534434847211395 0.7934762878726738 0.5741413151091084 0.0
C C 0.5428409578088297 0.8741910583016663 0.6544576054129325 0.0
C C 0.0781827266580856 0.5191897883166217 0.4741710767406698 0.0
C C 0.9445643752967517 0.4820439367529723 0.5075154379965807 0.0
C C 0.5022090590936078 0.03136487290571233 0.46529749510916085 0.0
C C 0.48109503034728357 0.9515922970781905 0.48867748148771895 0.0
H H 0.3367607734048387 0.40307950507392937 0.32659114097573044 0.0
H H 0.046579708981036125 0.4560505810418372 0.2591448490238684 0.0
H H 0.7272497294752168 0.6054836357984384 0.26018235795438494 0.0
H H 0.9143674540221036 0.6711281933117611 0.24553784178552351 0.0
H H 0.5460676505586244 0.26959763489267613 0.25933310207238863 0.0
H H 0.6003870070037242 0.04544994981553134 0.2742271562101101 0.0
H H 0.4344592481449924 0.6681327487979746 0.2952842088283282 0.0
H H 0.4289914234946277 0.8919303619199545 0.27088456736339467 0.0
H H 0.6786535687380513 0.3902169849161506 0.7787061881510602 0.0
H H 0.9294667919706984 0.4469904634363066 0.655795369406018 0.0
H H 0.32206479842514707 0.55146294528133 0.7431880836597611 0.0
H H 0.08799458760403804 0.6340701065667114 0.6929622051270504 0.0
H H 0.4312751018344108 0.2867458340421818 0.6911361734007555 0.0
H H 0.4557773178752722 0.11790967163971364 0.7178916538515429 0.0
H H 0.5663988472113951 0.7393072878726739 0.6774443151091083 0.0
H H 0.5789239578088297 0.9208630583016661 0.7613876054129325 0.0
Cu Cu 0.49846885107256406 0.5019385667841597 0.4808813897350177 0.0
Si Si 0.5082692381607777 0.5260849156946913 -0.03464358093835934 0.0
F F 0.5575951875211745 0.5108804397731083 0.7478743348594727 0.0
F F 0.4899849206785986 0.49465750448829 0.14502355579936077 0.0
F F 0.41650376537797645 0.3917599549414629 0.01897812779265253 0.0
F F 0.6228740627227758 0.5938551978772268 -0.0038512259631578514 0.0
F F 0.5903497746275693 0.3677276047883232 0.05016101069817281 0.0
F F 0.39661587698304385 0.6256281778541304 0.024660721257683763 0.0
N N 0.3098905252800467 0.5040707628676429 0.5491921887474641 0.0
N N 0.6968248731983345 0.4779847047611786 0.4671185749253508 0.0
N N 0.5095531855721203 0.3080754081626048 0.5543480431868901 0.0
N N 0.5201786113139938 0.6831879084156515 0.5045579257542213 0.0
