_cell_length_a 11.045
_cell_length_b 11.045
_cell_length_c 8.163
_cell_angle_alpha 90.0
_cell_angle_beta 90.0
_cell_angle_gamma 90.0
_symmetry_space_group_name_H-M         'P 1'
_symmetry_Int_Tables_number            1
loop_
_symmetry_equiv_pos_as_xyz
   'x, y, z'
                         
loop_
_atom_site_label
_atom_site_type_symbol
_atom_site_fract_x 
_atom_site_fract_y
_atom_site_fract_z
_atom_site_charge
C C 0.2919426066397681 0.441151051701142 0.3482886174357736 0.0
C C 0.16471425206674456 0.4848215442416555 0.3531097679605036 0.0
C C 0.7041949837452167 0.544217519521301 0.4274693737067025 0.0
C C 0.8731735667013238 0.5198389811372883 0.3819488611929282 0.0
C C 0.5304700517810225 0.2630440492783513 0.3382896878372679 0.0
C C 0.5449906051322896 0.09145215321361974 0.43128782752999134 0.0
C C 0.44562249926806996 0.6995992223279149 0.35066899991653994 0.0
C C 0.42746897263737904 0.9004703562630695 0.40776200938759866 0.0
C C 0.7294702974908647 0.39177607125300934 0.6289968934352657 0.0
C C 0.8618026906526024 0.46024650284630503 0.649106739190711 0.0
C C 0.235498978436119 0.5489902429363823 0.7007935881384425 0.0
C C 0.13121594576214804 0.5262324853502279 0.6304881027265837 0.0
C C 0.4330296487856317 0.2681471884841865 0.617908438060749 0.0
C C 0.4720082081798525 0.0936467441395535 0.6400559921876056 0.0
C C 0.5621378121959795 0.6986601787985922 0.6366132361337729 0.0
C C 0.507402906473962 0.8582786137644163 0.67303394407919 0.0
C C 0.07663327361643166 0.5132992037317827 0.42835420850432515 0.0
C C 0.9161064528289999 0.4900940050544411 0.5183462924438064 0.0
C C 0.5175523125231224 0.13747963656287876 0.5326176459727671 0.0
C C 0.5158374156854386 0.9414539961029472 0.5265339635027598 0.0
H H 0.34611160663976814 0.4091870517011419 0.24498561743577354 0.0
H H 0.1180422520667446 0.4487385442416555 0.24617976796050356 0.0
H H 0.6500259837452167 0.5761815195213011 0.3241663737067025 0.0
H H 0.9198455667013237 0.5559219811372885 0.2750188611929282 0.0
H H 0.5624340517810225 0.3172130492783513 0.2349866878372679 0.0
H H 0.5810736051322897 0.04478015321361974 0.3243578275299913 0.0
H H 0.4136584992680699 0.6454302223279149 0.2473659999165399 0.0
H H 0.39138597263737906 0.9471423562630694 0.30083200938759863 0.0
H H 0.6753012974908646 0.35981207125300935 0.7322998934352657 0.0
H H 0.9084746906526023 0.4241635028463051 0.756036739190711 0.0
H H 0.2896679784361189 0.5809542429363824 0.8040965881384424 0.0
H H 0.08454394576214806 0.562315485350228 0.7374181027265837 0.0
H H 0.40106564878563167 0.32231618848418647 0.7212114380607489 0.0
H H 0.43592520817985253 0.046974744139553506 0.7469859921876055 0.0
H H 0.5941018121959795 0.6444911787985922 0.7399162361337728 0.0
H H 0.5434859064739621 0.9049506137644162 0.7799639440791901 0.0
Cu Cu 0.475254078154998 0.48964312205074867 0.4362413984322155 0.0
Si Si 0.5204708546047775 0.4703762804796931 0.012022972646376712 0.0
F F 0.5053992574912436 0.4809134399464546 0.7418999439532522 0.0
F F 0.49597906890654603 0.4836168197770105 0.16863467884707148 0.0
F F 0.4066793820821095 0.38487942173504053 0.019395928224984565 0.0
F F 0.6161897918074342 0.578393076960933 0.017413669819630974 0.0
F F 0.6168983846287263 0.34290197291015323 0.023824814084416043 0.0
F F 0.39840232595838543 0.5926934426254056 -0.02125106525044068 0.0
N N 0.331159453694076 0.5259046232317295 0.51223136670231 0.0
N N 0.6999852428816732 0.4843276860238218 0.4762564579044333 0.0
N N 0.48946107205509454 0.34458301759746474 0.46224287668636654 0.0
N N 0.5294243992156629 0.7080801008463192 0.509984842756198 0.0
