_cell_length_a 11.045
_cell_length_b 11.045
_cell_length_c 8.163
_cell_angle_alpha 90.0
_cell_angle_beta 90.0
_cell_angle_gamma 90.0
_symmetry_space_group_name_H-M         'P 1'
_symmetry_Int_Tables_number            1
loop_
_symmetry_equiv_pos_as_xyz
   'x, y, z'
                         
loop_
_atom_site_label
_atom_site_type_symbol
_atom_site_fract_x 
_atom_site_fract_y
_atom_site_fract_z
_atom_site_charge
C C 0.264555474192773 0.4340769012594344 0.38357653786686857 0.0
C C 0.1343620431678739 0.42523705492460745 0.37840367181311646 0.0
C C 0.7296497654386819 0.6141467420830139 0.28993653434225014 0.0
C C 0.8659807321360571 0.5487406406299813 0.3214193738934497 0.0
C C 0.5671894490128527 0.21576348033510032 0.39466938096226084 0.0
C C 0.5265928311298137 0.14233715705063243 0.35069672281258996 0.0
C C 0.4233128188532609 0.7354933383109875 0.373281989421046 0.0
C C 0.45576437720343105 0.8738146364507738 0.34812591678028015 0.0
C C 0.7559728134660475 0.4793197790446531 0.6359772272172535 0.0
C C 0.8250909122318673 0.4201250971769471 0.6690138832350148 0.0
C C 0.2459739889518978 0.5004635224573555 0.6574687639720268 0.0
C C 0.13200716302469642 0.5044280431150151 0.6732847360812604 0.0
C C 0.4603473359622105 0.26494949285627145 0.5900781863965004 0.0
C C 0.4341251864959752 0.1451182964508094 0.6569851398791541 0.0
C C 0.5367634807383757 0.7495566136013334 0.6067736105957546 0.0
C C 0.5283622310113404 0.8895825131685401 0.6092841316841879 0.0
C C 0.06893527247824463 0.5017408626307719 0.5036301385261117 0.0
C C 0.9614615035958247 0.5807436609630638 0.5260697858861887 0.0
C C 0.49776902143153345 0.06101918127549327 0.4764517308321473 0.0
C C 0.5050463992544614 0.9767471363381574 0.4853280330773667 0.0
H H 0.31872447419277294 0.40211290125943433 0.2802735378668685 0.0
H H 0.08769004316787392 0.38915405492460753 0.27147367181311644 0.0
H H 0.6754807654386819 0.646110742083014 0.18663353434225008 0.0
H H 0.912652732136057 0.5848236406299814 0.2144893738934497 0.0
H H 0.5991534490128528 0.2699324803351003 0.2913663809622608 0.0
H H 0.5626758311298138 0.09566515705063246 0.24376672281259 0.0
H H 0.3913488188532608 0.6813243383109876 0.269978989421046 0.0
H H 0.41968137720343107 0.9204866364507737 0.24119591678028016 0.0
H H 0.7018038134660475 0.44735577904465307 0.7392802272172534 0.0
H H 0.8717629122318671 0.38404209717694715 0.7759438832350147 0.0
H H 0.3001429889518977 0.5324275224573556 0.7607717639720267 0.0
H H 0.08533516302469642 0.5405110431150153 0.7802147360812602 0.0
H H 0.42838333596221034 0.31911849285627136 0.6933811863965004 0.0
H H 0.3980421864959752 0.09844629645080943 0.763915139879154 0.0
H H 0.5687274807383758 0.6953876136013335 0.7100766105957546 0.0
H H 0.5644452310113404 0.93625451316854 0.7162141316841879 0.0
Cu Cu 0.5129580280494573 0.48114945755185107 0.49879003523115834 0.0
Si Si 0.5041172116690262 0.506507569284895 0.018976286748595694 0.0
F F 0.5102147297000368 0.5302686385368315 0.8068493684337142 0.0
F F 0.5313873079598372 0.45284492328884773 0.18571947779000336 0.0
F F 0.39485142968198167 0.3858816426260702 0.004749732314168179 0.0
F F 0.6055319665428402 0.6204845685646626 -0.03777140323949516 0.0
F F 0.6345022185223461 0.38378810933091656 0.04366287567327345 0.0
F F 0.3783161762362804 0.6316664248993339 0.041154787472847 0.0
N N 0.32875295465873433 0.5119077208072953 0.4864304187185399 0.0
N N 0.6660582515040294 0.47968567456451744 0.5560710292724893 0.0
N N 0.5109104540742183 0.3127512727616534 0.5306031853342998 0.0
N N 0.48042729713718063 0.6992380275540772 0.5052211773921532 0.0
