_cell_length_a 11.045
_cell_length_b 11.045
_cell_length_c 8.163
_cell_angle_alpha 90.0
_cell_angle_beta 90.0
_cell_angle_gamma 90.0
_symmetry_space_group_name_H-M         'P 1'
_symmetry_Int_Tables_number            1
loop_
_symmetry_equiv_pos_as_xyz
   'x, y, z'
                         
loop_
_atom_site_label
_atom_site_type_symbol
_atom_site_fract_x 
_atom_site_fract_y
_atom_site_fract_z
_atom_site_charge
C C 0.27767186284907497 0.4676529749548858 0.4255714443277538 0.0
C C 0.14261077716122858 0.4537788042603753 0.4302720207662796 0.0
C C 0.7521785399742484 0.5639832563406921 0.4078124436454053 0.0
C C 0.8863051807645098 0.5516011735438594 0.38126680804499363 0.0
C C 0.5727128493460257 0.2903868373215478 0.3815790474796314 0.0
C C 0.5943300533367161 0.13214250079731404 0.32299862154644443 0.0
C C 0.45162153478314315 0.7343273005816011 0.41058089840141454 0.0
C C 0.49337370807779135 0.816672214337627 0.37654935842652576 0.0
C C 0.7592187286264095 0.4171453313997882 0.6137717750466622 0.0
C C 0.8856942700444483 0.3957953170053777 0.6503467798663009 0.0
C C 0.2931717000464667 0.5367871690746256 0.6371110234249742 0.0
C C 0.1393002190961856 0.5212740470665248 0.6306503302423899 0.0
C C 0.45572399150401016 0.24202543383152453 0.6633493200830657 0.0
C C 0.4849132932479847 0.12352199713100426 0.5901877909833096 0.0
C C 0.5463986211826208 0.7940856649917031 0.6019983657226885 0.0
C C 0.5592297538384318 0.8820671934074342 0.5948540326885063 0.0
C C 0.06426146177592193 0.5293500936372412 0.5320189253731458 0.0
C C 0.944407421901121 0.46813640846779814 0.4984820258888638 0.0
C C 0.5007357941603469 0.09851523412216137 0.5385759160521262 0.0
C C 0.4831050976717587 0.9678455410958733 0.5060016175085097 0.0
H H 0.331840862849075 0.43568897495488573 0.3222684443277537 0.0
H H 0.09593877716122859 0.41769580426037534 0.32334202076627966 0.0
H H 0.6980095399742485 0.5959472563406922 0.3045094436454052 0.0
H H 0.9329771807645098 0.5876841735438595 0.2743368080449936 0.0
H H 0.6046768493460257 0.34455583732154776 0.27827604747963136 0.0
H H 0.6304130533367162 0.08547050079731404 0.2160686215464444 0.0
H H 0.4196575347831431 0.6801583005816011 0.30727789840141445 0.0
H H 0.4572907080777914 0.8633442143376269 0.26961935842652573 0.0
H H 0.7050497286264096 0.3851813313997881 0.7170747750466622 0.0
H H 0.9323662700444483 0.3597123170053777 0.7572767798663007 0.0
H H 0.3473407000464667 0.5687511690746258 0.7404140234249742 0.0
H H 0.09262821909618561 0.557357047066525 0.7375803302423899 0.0
H H 0.4237599915040101 0.2961944338315245 0.7666523200830656 0.0
H H 0.44883029324798474 0.0768499971310043 0.6971177909833096 0.0
H H 0.5783626211826209 0.7399166649917032 0.7053013657226885 0.0
H H 0.5953127538384317 0.928739193407434 0.7017840326885062 0.0
Cu Cu 0.5112966781786966 0.5045610147386718 0.48371883372426855 0.0
Si Si 0.5026942842212031 0.4723439779571524 0.04852381534180909 0.0
F F 0.4635658833853688 0.48364561841949494 0.8241855815183601 0.0
F F 0.4904451675814011 0.5148127156682462 0.20131057983526796 0.0
F F 0.4225905840309026 0.406294738820801 -0.019168923234120682 0.0
F F 0.6208157432109717 0.6048426476237309 4.836989840050342e-05 0.0
F F 0.6244594527893879 0.39467346139442977 0.009295525503978122 0.0
F F 0.41432293051211505 0.6069300448860869 -0.001181141251928491 0.0
N N 0.30173933088127824 0.5296351676787521 0.5044831711776274 0.0
N N 0.6608894512753791 0.4999400382360578 0.43420633173075335 0.0
N N 0.5104218763087522 0.3115018007557389 0.46766026602990546 0.0
N N 0.5375684385684133 0.6914187001218917 0.5430913097286223 0.0
