_cell_length_a 11.045
_cell_length_b 11.045
_cell_length_c 8.163
_cell_angle_alpha 90.0
_cell_angle_beta 90.0
_cell_angle_gamma 90.0
_symmetry_space_group_name_H-M         'P 1'
_symmetry_Int_Tables_number            1
loop_
_symmetry_equiv_pos_as_xyz
   'x, y, z'
                         
loop_
_atom_site_label
_atom_site_type_symbol
_atom_site_fract_x 
_atom_site_fract_y
_atom_site_fract_z
_atom_site_charge
C C 0.2803120891402454 0.44072549923742593 0.4608315959250757 0.0
C C 0.110863717722761 0.485557981399937 0.3926360444732278 0.0
C C 0.6859075214456292 0.49698675963884165 0.385374475282902 0.0
C C 0.8488680773165755 0.5602314868086631 0.37486908220393816 0.0
C C 0.5354782613712361 0.2870014780654283 0.3669527779255111 0.0
C C 0.5355497713008521 0.0818624464590244 0.38902869617478425 0.0
C C 0.4914349025545244 0.7216792444201389 0.37216963381391854 0.0
C C 0.43023375404989034 0.8135603759522907 0.40355106228593296 0.0
C C 0.7376825305528049 0.44018888223477814 0.6430726324833838 0.0
C C 0.8692203041081265 0.45014825356053295 0.665212299198523 0.0
C C 0.22236320081934977 0.5091226094874056 0.6084530342373515 0.0
C C 0.1128140080051043 0.5158167364975053 0.6681336775300606 0.0
C C 0.4945473744714576 0.21504422194210526 0.6745720455197177 0.0
C C 0.4822675982022901 0.1399267036351204 0.6659042958298929 0.0
C C 0.5605775081994615 0.7260732575300541 0.6025290420545018 0.0
C C 0.5435040776141655 0.7664264980328667 0.6542454571281513 0.0
C C 0.042376044060941996 0.5193345596060523 0.5700466837589276 0.0
C C 0.9472109714978155 0.5065916263909592 0.49950528606986927 0.0
C C 0.5275495504068264 0.10412600568537293 0.4843844376110811 0.0
C C 0.500234640020765 0.9444111677420958 0.5701407801788747 0.0
H H 0.3344810891402454 0.4087614992374259 0.3575285959250757 0.0
H H 0.06419171772276103 0.4494749813999371 0.28570604447322784 0.0
H H 0.6317385214456291 0.5289507596388417 0.2820714752829019 0.0
H H 0.8955400773165754 0.5963144868086632 0.26793908220393814 0.0
H H 0.5674422613712362 0.3411704780654283 0.2636497779255111 0.0
H H 0.5716327713008522 0.035190446459024395 0.2820986961747843 0.0
H H 0.45947090255452433 0.6675102444201388 0.2688666338139185 0.0
H H 0.3941507540498904 0.8602323759522905 0.29662106228593293 0.0
H H 0.6835135305528048 0.40822488223477804 0.7463756324833837 0.0
H H 0.9158923041081264 0.414065253560533 0.772142299198523 0.0
H H 0.2765322008193497 0.5410866094874057 0.7117560342373515 0.0
H H 0.06614200800510431 0.5518997364975053 0.7750636775300606 0.0
H H 0.46258337447145753 0.26921322194210523 0.7778750455197176 0.0
H H 0.4461845982022902 0.09325470363512038 0.7728342958298928 0.0
H H 0.5925415081994615 0.6719042575300541 0.7058320420545018 0.0
H H 0.5795870776141656 0.8130984980328665 0.7611754571281513 0.0
Cu Cu 0.497373544872078 0.4843808896526519 0.5372993523585209 0.0
Si Si 0.5121234478573966 0.4943531143615114 -0.011073651975163419 0.0
F F 0.4750234088426806 0.5184533089022477 0.820549290890691 0.0
F F 0.4859181361204366 0.473103583825458 0.24294788358995056 0.0
F F 0.3866327623997133 0.35878514755848806 0.0031064131378552573 0.0
F F 0.5954569937203672 0.5932761874096975 -0.010226512687192348 0.0
F F 0.568674615698243 0.4256327828713386 -0.0026019159445774143 0.0
F F 0.41248559386477845 0.6342515188928421 -0.038544151302854164 0.0
N N 0.3220544213695855 0.5087778173935305 0.5179316327950206 0.0
N N 0.6692834929906573 0.496907771613735 0.39176698480430444 0.0
N N 0.5035812519299531 0.33341311779185523 0.5675935326810145 0.0
N N 0.48991322524717756 0.6854861833669778 0.5003606361636008 0.0
