_cell_length_a 11.045
_cell_length_b 11.045
_cell_length_c 8.163
_cell_angle_alpha 90.0
_cell_angle_beta 90.0
_cell_angle_gamma 90.0
_symmetry_space_group_name_H-M         'P 1'
_symmetry_Int_Tables_number            1
loop_
_symmetry_equiv_pos_as_xyz
   'x, y, z'
                         
loop_
_atom_site_label
_atom_site_type_symbol
_atom_site_fract_x 
_atom_site_fract_y
_atom_site_fract_z
_atom_site_charge
C C 0.25435895420097393 0.45162202795779566 0.3845584305561032 0.0
C C 0.09236867767137777 0.4620938857873897 0.36828756315211936 0.0
C C 0.7344556765593244 0.5497567438890848 0.3513534284269068 0.0
C C 0.8917045047162176 0.49740254014023566 0.39752267845541206 0.0
C C 0.5443783609242336 0.31609901883953073 0.3401187599438899 0.0
C C 0.5265879759934153 0.12696937654262708 0.3884475634626565 0.0
C C 0.430101455016295 0.7495457896999548 0.39177437051111236 0.0
C C 0.42361475133523757 0.8834910998985761 0.4423594478482972 0.0
C C 0.7393051969595694 0.4604112793584558 0.6577178435421492 0.0
C C 0.8652823024332539 0.45868363175361865 0.6395198769240075 0.0
C C 0.2455051302014444 0.5838769638989337 0.5656301548184963 0.0
C C 0.14063690776017962 0.5292959825373208 0.6617227437203747 0.0
C C 0.4454491827201167 0.23173170544653035 0.6942047426117514 0.0
C C 0.48853710752880386 0.16905193665179621 0.6246641276551882 0.0
C C 0.5140374962993439 0.82154343581733 0.614202518930571 0.0
C C 0.5485880406771164 0.8771147270886879 0.6604720800054924 0.0
C C 0.07030913225123651 0.5015531744342492 0.4902487650960878 0.0
C C 0.9319372731246177 0.5006174565548454 0.5219453408858398 0.0
C C 0.48083096558464133 0.08243817832768491 0.5285693656004881 0.0
C C 0.4895573998130929 0.9229482006907459 0.4902513153649387 0.0
H H 0.3085279542009739 0.4196580279577956 0.2812554305561032 0.0
H H 0.04569667767137778 0.4260108857873897 0.26135756315211933 0.0
H H 0.6802866765593245 0.5817207438890848 0.24805042842690675 0.0
H H 0.9383765047162176 0.5334855401402357 0.29059267845541203 0.0
H H 0.5763423609242337 0.3702680188395307 0.2368157599438899 0.0
H H 0.5626709759934155 0.0802973765426271 0.28151756346265655 0.0
H H 0.39813745501629494 0.6953767896999549 0.2884713705111123 0.0
H H 0.3875317513352376 0.930163099898576 0.3354294478482972 0.0
H H 0.6851361969595694 0.4284472793584557 0.7610208435421492 0.0
H H 0.9119543024332538 0.42260063175361867 0.7464498769240074 0.0
H H 0.29967413020144434 0.6158409638989338 0.6689331548184962 0.0
H H 0.09396490776017963 0.5653789825373209 0.7686527437203746 0.0
H H 0.41348518272011664 0.2859007054465303 0.7975077426117513 0.0
H H 0.45245410752880394 0.12237993665179624 0.731594127655188 0.0
H H 0.546001496299344 0.76737443581733 0.7175055189305709 0.0
H H 0.5846710406771164 0.9237867270886878 0.7674020800054924 0.0
Cu Cu 0.49327725993405575 0.5006071754132887 0.5043602160055389 0.0
Si Si 0.5166458964378483 0.5015519977137638 -0.026612917875470033 0.0
F F 0.5331150930015967 0.49660960824651024 0.8593223643459199 0.0
F F 0.4948423173692015 0.4990344820024753 0.1948851796373896 0.0
F F 0.403141678443914 0.39709585716366497 -0.009794133096352964 0.0
F F 0.6218736948020472 0.587774157367476 -0.06348690421171853 0.0
F F 0.6186110746787801 0.3752539624678978 0.047662296955365085 0.0
F F 0.38023688292724495 0.6275030149692546 -0.017513810996907332 0.0
N N 0.3207163303548047 0.5167893470384086 0.5554070301862282 0.0
N N 0.680167644838531 0.5024748297937132 0.5427649365983225 0.0
N N 0.494153764475176 0.3129232152942197 0.532595871307613 0.0
N N 0.46761817501940556 0.6775503227707889 0.5215831195647974 0.0
