_cell_length_a 20.4364
_cell_length_b 9.005017
_cell_length_c 16.6723
_cell_angle_alpha 90.0
_cell_angle_beta 110.2303
_cell_angle_gamma 90.0
_symmetry_space_group_name_H-M         'P 1'
_symmetry_Int_Tables_number            1
loop_
_symmetry_equiv_pos_as_xyz
   'x, y, z'
                         
loop_
_atom_site_label
_atom_site_type_symbol
_atom_site_fract_x 
_atom_site_fract_y
_atom_site_fract_z
_atom_site_charge
Zn Zn 0.15607403468168837 0.3193539321164955 0.2631897186152934 0.0
Zn Zn 0.0031264191017396008 0.24311810048628596 0.2566551913835546 0.0
O O 0.05845389520678159 0.10344706615319738 0.33471443129019085 0.0
O O 0.06699043122788052 0.3572539442291203 0.21729669210700425 0.0
O O 0.15115278933660325 0.22907417891834803 0.37844043304564035 0.0
N N 0.2695469796215699 0.03699008229906751 0.7001367911487877 0.0
N N 0.18651559514817975 -0.14293494794142234 0.7130828283561348 0.0
C C 0.20000287007976664 0.10158153550753105 0.5374133655212134 0.0
H H 0.23247287007976666 0.16850153550753103 0.5278733655212136 0.0
C C 0.11170792350742934 0.1333592719712654 0.3991978738092042 0.0
C C 0.1272175909041749 0.04667801813632706 0.47704277908709564 0.0
C C 0.09789280914323598 -0.10983512257130064 0.5629671817450151 0.0
H H 0.06645280914323595 -0.1804551225713006 0.5718271817450151 0.0
C C 0.21501547100833188 0.03638735023317753 0.6251851411554535 0.0
C C 0.24499945434571302 -0.050309029277130775 0.7498693634041936 0.0
C C 0.15882396854737935 -0.08802007761116215 0.636589530902045 0.0
C C 0.08918906615716275 -0.044122403866083786 0.49805033506880286 0.0
H H 0.04685906615716275 -0.06514240386608378 0.45271033506880287 0.0
O O 0.33940869787155775 0.051536257734890255 0.8699319438041624 0.0
H H 0.31455869787155777 0.11054625773489025 0.8858919438041625 0.0
C C 0.3020971055845471 -0.07727721836337162 0.8405949353076072 0.0
H H 0.2783371055845471 -0.11956621836337161 0.8787349353076072 0.0
C C 0.36113530988374004 -0.17984985256603306 0.8327980481010822 0.0
H H 0.06696526301045534 0.11104920734741532 0.06392312623787562 0.0
H H 0.06696526301045534 0.11104920734741532 0.06392312623787562 0.0
H H 0.3456553098837401 -0.275231852566033 0.8041880481010822 0.0
H H 0.06796043122788054 0.3889339442291203 0.18385669210700428 0.0
Zn Zn -0.1572597322008205 0.3013100661444356 0.23186700070858585 0.0
O O -0.05841552813950171 0.12618161226919195 0.16545918637076282 0.0
O O -0.05649758493325555 0.3697355246810458 0.28589645764408966 0.0
O O -0.15675476995839258 0.23880949835313448 0.11982691067971458 0.0
N N -0.258116985928597 0.052919638716626284 -0.1917249084572109 0.0
N N -0.1885748088749888 -0.11889524647373653 -0.21577643266238475 0.0
C C -0.20005593283107007 0.09796195940286143 -0.03916746536447381 0.0
H H -0.23252593283107004 0.16488195940286143 -0.029627465364473814 0.0
C C -0.11556229406030441 0.14174221887765862 0.11145933060152192 0.0
C C -0.13487787838491141 0.06372653278231634 0.020671944315941444 0.0
C C -0.1050968519846651 -0.11230376605724211 -0.07632022809967305 0.0
H H -0.0736568519846651 -0.18292376605724212 -0.08518022809967303 0.0
C C -0.20300158000658355 0.022504947900180036 -0.1178191331343883 0.0
C C -0.2545022803829525 -0.05785148789867909 -0.24936214349613856 0.0
C C -0.16802463398892253 -0.08966367599547909 -0.13310355550763123 0.0
C C -0.09025137946049973 -0.027017458061255276 0.0018893656216704695 0.0
H H -0.04792137946049972 -0.04803745806125526 0.04722936562167046 0.0
O O -0.3338546259376617 0.0589481383710418 -0.37214571903319327 0.0
H H -0.30900462593766165 0.1179581383710418 -0.38810571903319324 0.0
C C -0.30364101382264747 -0.07546097715449623 -0.3368654677745446 0.0
H H -0.27988101382264746 -0.11774997715449621 -0.3750054677745445 0.0
C C -0.36578494293226615 -0.18603423997814048 -0.3396709540866981 0.0
H H 0.06696526301045534 0.11104920734741532 0.06392312623787562 0.0
H H 0.06696526301045534 0.11104920734741532 0.06392312623787562 0.0
H H -0.35030494293226616 -0.28141623997814047 -0.31106095408669826 0.0
H H -0.057467584933255544 0.4014155246810458 0.31933645764408974 0.0
Zn Zn 0.667607767847689 0.8017072199853169 0.27009179432059843 0.0
Zn Zn 0.49913461055122343 0.757414231205993 0.2459734883378361 0.0
O O 0.5619287807927332 0.6130506100533064 0.345496651514327 0.0
O O 0.5647709084608985 0.8635833867399529 0.22030490476605302 0.0
O O 0.6544397817957563 0.7305537273322124 0.37594561579499025 0.0
N N 0.7707647960243975 0.5349708351467118 0.7038465377230788 0.0
N N 0.6848872585205604 0.3735463300555904 0.7165184824873987 0.0
C C 0.6989924249472655 0.5992567602535666 0.5424177313453317 0.0
H H 0.7314624249472655 0.6661767602535666 0.5328777313453318 0.0
C C 0.6161667219468264 0.6240619351222144 0.39461527717393285 0.0
C C 0.637978957995795 0.5613797471380342 0.47581090414401866 0.0
C C 0.5986925323536156 0.3880894633446285 0.5724626224038044 0.0
H H 0.5672525323536156 0.31746946334462844 0.5813226224038044 0.0
C C 0.7067685149777723 0.5141518816903841 0.6157067732572751 0.0
C C 0.7512867452913253 0.457516919733626 0.7544544311077334 0.0
C C 0.6680833047653808 0.4167119431004293 0.640166054606395 0.0
C C 0.5856485075173052 0.44367613118197663 0.4863637409579135 0.0
H H 0.5433185075173053 0.4226561311819766 0.4410237409579136 0.0
O O 0.8315646112762065 0.5546467471951818 0.8705827191329724 0.0
H H 0.8067146112762065 0.6136567471951818 0.8865427191329724 0.0
C C 0.7987364169531945 0.4313725905398335 0.8319802567514468 0.0
H H 0.7749764169531946 0.38908359053983343 0.8701202567514468 0.0
C C 0.868488773045174 0.3284661877254592 0.8350694825414848 0.0
H H 0.06696526301045534 0.11104920734741532 0.06392312623787562 0.0
H H 0.06696526301045534 0.11104920734741532 0.06392312623787562 0.0
H H 0.8530087730451742 0.2330841877254592 0.8064594825414849 0.0
H H 0.5657409084608985 0.8952633867399531 0.18686490476605305 0.0
Zn Zn 0.334169161914512 0.8168576063552616 0.2286184061469873 0.0
O O 0.43903015663680994 0.6159344484168998 0.15854046745348455 0.0
O O 0.4311773826540502 0.865230522996953 0.27874165130810036 0.0
O O 0.3487118057659015 0.7161988959230794 0.12023495721313747 0.0
N N 0.22989850936502582 0.5327868780917646 -0.19800889589945733 0.0
N N 0.31181456745488273 0.3805763768154491 -0.21449589929199206 0.0
C C 0.3093904588159666 0.6014909967315559 -0.04100951105329256 0.0
H H 0.27692045881596655 0.668410996731556 -0.03146951105329257 0.0
C C 0.383186888009113 0.6402700321564846 0.09938890782153034 0.0
C C 0.36614313163633694 0.5600568851192601 0.018004559520896447 0.0
C C 0.3999123591933817 0.39877863918117246 -0.07152989061190254 0.0
H H 0.4313523591933816 0.32815863918117244 -0.08038989061190253 0.0
C C 0.29367434865546305 0.514323466250318 -0.12412670096642599 0.0
C C 0.24508859657713467 0.44655216571456013 -0.25500872038172384 0.0
C C 0.3437321997010999 0.4184179920524906 -0.13195986982419713 0.0
C C 0.41483623676719256 0.46585556886993074 0.009256742453656637 0.0
H H 0.4571662367671926 0.4448355688699308 0.05459674245365662 0.0
O O 0.16080677877647323 0.5485042562612724 -0.36554786028083464 0.0
H H 0.18565677877647324 0.6075142562612724 -0.3815078602808346 0.0
C C 0.2050368528705219 0.40817306876695114 -0.33677153411106925 0.0
H H 0.22879685287052187 0.3658840687669511 -0.3749115341110692 0.0
C C 0.1332081707865201 0.3210554440474153 -0.3439722202261507 0.0
H H 0.06696526301045534 0.11104920734741532 0.06392312623787562 0.0
H H 0.06696526301045534 0.11104920734741532 0.06392312623787562 0.0
H H 0.1486881707865201 0.2256734440474153 -0.3153622202261508 0.0
H H 0.4302073826540502 0.8969105229969532 0.3121816513081004 0.0
Zn Zn -0.15746752696020108 -0.2951461918367025 -0.2601903163987688 0.0
Zn Zn -0.007396856831762628 -0.25051282900376914 -0.25583146265011864 0.0
O O -0.05542439304663584 -0.1122669575919856 -0.335535142250681 0.0
O O -0.06563700351317367 -0.3803419685050335 -0.22228163077183713 0.0
O O -0.15872686843698103 -0.22350344300751765 -0.377172111603446 0.0
N N -0.26713399345884203 -0.04738454797879011 -0.7013763675784609 0.0
N N -0.1956798096422962 0.1425923353571153 -0.7141802663562029 0.0
C C -0.19790614519546035 -0.10343743421754334 -0.5410037031443572 0.0
H H -0.23037614519546037 -0.1703574342175433 -0.5314637031443572 0.0
C C -0.11044004987932611 -0.13487630096479586 -0.39379764442775805 0.0
C C -0.132136161017268 -0.05802751612372622 -0.4829745520678263 0.0
C C -0.10011847663698697 0.1037831700187829 -0.5621631862480783 0.0
H H -0.06867847663698697 0.1744031700187829 -0.5710231862480782 0.0
C C -0.20613686992030758 -0.01241772952508504 -0.6144650425778553 0.0
C C -0.25602248401842365 0.06711493530561946 -0.7550931051279453 0.0
C C -0.1573420210307574 0.07380366473756164 -0.6328129927010041 0.0
C C -0.09289703849709975 0.044772705146322034 -0.4974400410040699 0.0
H H -0.05056703849709976 0.06579270514632202 -0.45210004100407 0.0
O O -0.3293676990689204 -0.049885720041698965 -0.8673647218100112 0.0
H H -0.30451769906892034 -0.10889572004169895 -0.8833247218100113 0.0
C C -0.29773278776804785 0.09446557550235178 -0.8356459497880442 0.0
H H -0.27397278776804784 0.1367545755023518 -0.8737859497880441 0.0
C C -0.36899968302518454 0.17078067851147463 -0.8326585998296194 0.0
H H 0.06696526301045534 0.11104920734741532 0.06392312623787562 0.0
H H 0.06696526301045534 0.11104920734741532 0.06392312623787562 0.0
H H -0.3535196830251845 0.26616267851147457 -0.8040485998296195 0.0
H H -0.06660700351317367 -0.4120219685050335 -0.18884163077183713 0.0
Zn Zn 0.1596601676941973 -0.2971522228865048 -0.22714218514567733 0.0
O O 0.05699040600044033 -0.11348720032447633 -0.16671394849040236 0.0
O O 0.06956264098787204 -0.35909980257921764 -0.2850732819089283 0.0
O O 0.1565853781922224 -0.22362240799311128 -0.12521534656879071 0.0
N N 0.2695263782883671 -0.044255502048579795 0.19550867088820365 0.0
N N 0.19560428454951537 0.1245646564230639 0.2133562627236049 0.0
C C 0.19774810817138666 -0.0818821169692966 0.04120910607848365 0.0
H H 0.23021810817138666 -0.1488021169692966 0.03166910607848366 0.0
C C 0.11216274726256548 -0.13361444299794462 -0.10870929261874143 0.0
C C 0.12753893479398914 -0.057027904715428505 -0.02786962989483498 0.0
C C 0.10333899900022588 0.11749145116530725 0.06849159059384785 0.0
H H 0.07189899900022585 0.18811145116530725 0.07735159059384783 0.0
C C 0.2029990028744244 -0.020345093017121334 0.115551718646708 0.0
C C 0.2539546195619916 0.04609471287404621 0.2552735899741891 0.0
C C 0.1631901206974955 0.06338846698274833 0.12748365140476614 0.0
C C 0.08954229652175713 0.04276947120516507 -0.012029382971591188 0.0
H H 0.04721229652175713 0.06378947120516507 -0.05736938297159118 0.0
O O 0.3320338993205867 -0.053256569490691276 0.37435451397500435 0.0
H H 0.30718389932058665 -0.11226656949069128 0.3903145139750044 0.0
C C 0.29390965532618674 0.0829396587287004 0.34050173891271884 0.0
H H 0.2701496553261868 0.1252286587287004 0.3786417389127188 0.0
C C 0.3673508366983991 0.16743229335512022 0.3453894184246009 0.0
H H 0.06696526301045534 0.11104920734741532 0.06392312623787562 0.0
H H 0.06696526301045534 0.11104920734741532 0.06392312623787562 0.0
H H 0.3518708366983991 0.26281429335512024 0.31677941842460106 0.0
H H 0.07053264098787204 -0.3907798025792176 -0.3185132819089283 0.0
Zn Zn 0.3338021762503343 0.17977966696046455 -0.2713813555592587 0.0
Zn Zn 0.4952777987420878 0.25916165883614367 -0.2528850804448524 0.0
O O 0.4497778362161193 0.38919424816178133 -0.33748956986708095 0.0
O O 0.44211511554611044 0.1414152540593703 -0.21294959811134048 0.0
O O 0.3479091104661724 0.2690990399152295 -0.3814673541924229 0.0
N N 0.23858185106250177 0.47066740773956844 -0.6910488375475144 0.0
N N 0.3128940784474502 0.6186983719406428 -0.7195881893755073 0.0
C C 0.3028226167256304 0.40427959952016385 -0.5403777251772464 0.0
H H 0.27035261672563027 0.33735959952016387 -0.5308377251772464 0.0
C C 0.37943991963111107 0.34687267605031596 -0.3945656873454545 0.0
C C 0.3754696356690419 0.43837879492393894 -0.4717717527119463 0.0
C C 0.4016563435504179 0.6109621115396616 -0.5743839739753599 0.0
H H 0.43309634355041776 0.6815821115396616 -0.5832439739753599 0.0
C C 0.290342966653118 0.46196715839524816 -0.6218088892771726 0.0
C C 0.24379331260339418 0.540244952574954 -0.7530947493554216 0.0
C C 0.3387538606213211 0.5834342347488628 -0.6260735026193653 0.0
C C 0.41579952800903897 0.5286890746182616 -0.4942914868025086 0.0
H H 0.4581295280090389 0.5497090746182616 -0.4489514868025087 0.0
O O 0.15942844179902263 0.45531384462651225 -0.8705734696668073 0.0
H H 0.18427844179902264 0.3963038446265121 -0.8865334696668073 0.0
C C 0.19690673306685033 0.5711786856348955 -0.8397598061026081 0.0
H H 0.2206667330668503 0.6134676856348955 -0.8778998061026081 0.0
C C 0.12614385014120813 0.6885245418799917 -0.8427809398683173 0.0
H H 0.06696526301045534 0.11104920734741532 0.06392312623787562 0.0
H H 0.06696526301045534 0.11104920734741532 0.06392312623787562 0.0
H H 0.14162385014120818 0.7839065418799919 -0.8141709398683173 0.0
H H 0.44114511554611047 0.1097352540593703 -0.1795095981113405 0.0
Zn Zn 0.6627871795398053 0.19157211683526154 -0.23211324677182085 0.0
O O 0.5529215693505325 0.38696736767443285 -0.17043107188969214 0.0
O O 0.5636178638002595 0.14183323794458574 -0.28002244903189916 0.0
O O 0.6572382973310638 0.28435901797790025 -0.12568667918635398 0.0
N N 0.7674141278534449 0.47316013688429454 0.20152703103328892 0.0
N N 0.6913045675518026 0.6431640765538151 0.21875415748968377 0.0
C C 0.6956671008158399 0.40701103001571803 0.04876614839852551 0.0
H H 0.7281371008158398 0.34009103001571805 0.03922614839852552 0.0
C C 0.6111557452282099 0.3529082300372716 -0.10687615780888989 0.0
C C 0.6359661254205554 0.4436987709119382 -0.02208223580953477 0.0
C C 0.5992265193282855 0.6134239128587556 0.07378241791362022 0.0
H H 0.5677865193282854 0.6840439128587558 0.0826424179136202 0.0
C C 0.7046102581535513 0.47803031013331265 0.1235593097661206 0.0
C C 0.7448278771351348 0.5424190026039135 0.24823237618392946 0.0
C C 0.6639804192121365 0.5779858064051582 0.13482640585269465 0.0
C C 0.5834875191785662 0.5388729733194682 -0.015317380317976309 0.0
H H 0.5411575191785662 0.5598929733194681 -0.060657380317976295 0.0
O O 0.8389129132970229 0.4514943224622384 0.3767555477035098 0.0
H H 0.8140629132970228 0.39248432246223836 0.3927155477035098 0.0
C C 0.8063456990925023 0.588953287706042 0.34180672758853803 0.0
H H 0.7825856990925023 0.6312422877060421 0.379946727588538 0.0
C C 0.8712855853108477 0.6832078790485299 0.34343634147615476 0.0
H H 0.06696526301045534 0.11104920734741532 0.06392312623787562 0.0
H H 0.06696526301045534 0.11104920734741532 0.06392312623787562 0.0
H H 0.8558055853108477 0.7785898790485299 0.3148263414761549 0.0
H H 0.5645878638002595 0.11015323794458573 -0.31346244903189924 0.0
