_cell_length_a 20.4364
_cell_length_b 9.005017
_cell_length_c 16.6723
_cell_angle_alpha 90.0
_cell_angle_beta 110.2303
_cell_angle_gamma 90.0
_symmetry_space_group_name_H-M         'P 1'
_symmetry_Int_Tables_number            1
loop_
_symmetry_equiv_pos_as_xyz
   'x, y, z'
                         
loop_
_atom_site_label
_atom_site_type_symbol
_atom_site_fract_x 
_atom_site_fract_y
_atom_site_fract_z
_atom_site_charge
Zn Zn 0.1627119116944266 0.3087539443877551 0.259451733837378 0.0
Zn Zn -6.675888189276418e-05 0.23580308135304343 0.25174125237235656 0.0
O O 0.05150544010431273 0.12565656173936324 0.33678723915084186 0.0
O O 0.05924864943783471 0.3605698279472337 0.21257288155067053 0.0
O O 0.16157088000282346 0.24146153446328847 0.3892710293270113 0.0
N N 0.26594680981807967 0.03530659271659796 0.692828344485225 0.0
N N 0.18370884485596825 -0.1359057765622435 0.71124338750778 0.0
C C 0.19667652266668134 0.09677999701496637 0.5395920926128236 0.0
H H 0.22914652266668137 0.16369999701496632 0.5300520926128237 0.0
C C 0.11839991137938975 0.12683640275340324 0.39912211977396483 0.0
C C 0.13270213844116718 0.07026667280020653 0.4762616788630303 0.0
C C 0.0953525027996599 -0.10149723215051593 0.5685972428200964 0.0
H H 0.06391250279965986 -0.17211723215051591 0.5774572428200963 0.0
C C 0.21680568026838798 0.029451356445896085 0.6252476118444411 0.0
C C 0.24761395545082326 -0.04999701054305431 0.7527581620591368 0.0
C C 0.1650017890500628 -0.0641402528359869 0.6357207029667281 0.0
C C 0.08286794467481634 -0.03170724237919062 0.49412246853229497 0.0
H H 0.04053794467481635 -0.0527272423791906 0.448782468532295 0.0
O O 0.3317683968649821 0.051323819857468964 0.8644324100682524 0.0
H H 0.3069183968649821 0.11033381985746896 0.8803924100682525 0.0
C C 0.2999045403738845 -0.0706527212708708 0.8328710034352681 0.0
H H 0.2761445403738845 -0.1129417212708708 0.871011003435268 0.0
C C 0.3683501201687635 -0.17474455759987195 0.8345772669536654 0.0
H H 0.06696526301045534 0.11104920734741532 0.06392312623787562 0.0
H H 0.06696526301045534 0.11104920734741532 0.06392312623787562 0.0
H H 0.3528701201687635 -0.2701265575998719 0.8059672669536655 0.0
H H 0.06021864943783472 0.39224982794723373 0.17913288155067056 0.0
Zn Zn -0.15657658992011322 0.31425381056945056 0.23289223947521534 0.0
O O -0.05581026065649435 0.11503753967865454 0.16745019577504683 0.0
O O -0.0674889744710416 0.37321383753796433 0.2728937540671038 0.0
O O -0.16192573084943318 0.2343408183963392 0.12498511252118794 0.0
N N -0.26369905493079837 0.0281075747557859 -0.20053007616516252 0.0
N N -0.19261794076482455 -0.12347017962331991 -0.2095425395498405 0.0
C C -0.20240171246841243 0.10671707020063653 -0.04238612534894462 0.0
H H -0.23487171246841246 0.17363707020063654 -0.03284612534894463 0.0
C C -0.11372316144502591 0.15370610023381007 0.10535241107393806 0.0
C C -0.13567647072902903 0.07171070331752634 0.02723230975899634 0.0
C C -0.0990861939867975 -0.11278060786683594 -0.07270983001438056 0.0
H H -0.06764619398679748 -0.18340060786683596 -0.08156983001438052 0.0
C C -0.21124786196807935 0.028581498275810652 -0.12311572780433899 0.0
C C -0.24897055167995732 -0.06607149382922553 -0.25585343344644285 0.0
C C -0.16186664320027977 -0.07146848757066068 -0.1363306936386642 0.0
C C -0.09023873990612183 -0.030552555194636653 0.0015180692176107958 0.0
H H -0.04790873990612182 -0.051572555194636646 0.046858069217610786 0.0
O O -0.33647175909241983 0.04066428267525625 -0.369992903258713 0.0
H H -0.3116217590924198 0.09967428267525624 -0.38595290325871295 0.0
C C -0.2983337799562959 -0.07717536637887391 -0.34236288962158157 0.0
H H -0.2745737799562959 -0.1194643663788739 -0.3805028896215815 0.0
C C -0.3651595083283673 -0.17067216146212028 -0.34313612121315756 0.0
H H 0.06696526301045534 0.11104920734741532 0.06392312623787562 0.0
H H 0.06696526301045534 0.11104920734741532 0.06392312623787562 0.0
H H -0.34967950832836736 -0.2660541614621203 -0.3145261212131577 0.0
H H -0.0684589744710416 0.4048938375379643 0.3063337540671039 0.0
Zn Zn 0.667706964183418 0.8170800891629627 0.2724446163516962 0.0
Zn Zn 0.5051707544545572 0.7387193518887969 0.25381637561989656 0.0
O O 0.5507792792878519 0.6033504342536484 0.34021074712776694 0.0
O O 0.5673002378231717 0.8721632260654351 0.22688827193771355 0.0
O O 0.6584774061400326 0.7358827882782164 0.3839459638688023 0.0
N N 0.767645121465898 0.534965689474712 0.703208335612056 0.0
N N 0.691928718370727 0.3825402936607665 0.7202703793973309 0.0
C C 0.6967914412879886 0.6032980743812332 0.5496436268417436 0.0
H H 0.7292614412879888 0.6702180743812333 0.5401036268417437 0.0
C C 0.6103208763223418 0.631699163594358 0.3972479091906664 0.0
C C 0.6281853572043089 0.5663872467389562 0.47416301564949803 0.0
C C 0.5937822272752772 0.3977400307443548 0.5651888291600934 0.0
H H 0.5623422272752773 0.3271200307443548 0.5740488291600934 0.0
C C 0.7137620844109865 0.5196852309493385 0.6188697097735761 0.0
C C 0.7472477045688648 0.4346102252417148 0.7434303620848154 0.0
C C 0.6588298279197307 0.4346156630248732 0.6280344960080825 0.0
C C 0.5818764372366705 0.46845061911651775 0.4924650854123187 0.0
H H 0.5395464372366704 0.44743061911651766 0.4471250854123187 0.0
O O 0.8337257892329926 0.5408675843898234 0.8659538143128939 0.0
H H 0.8088757892329926 0.5998775843898234 0.881913814312894 0.0
C C 0.7962584209410236 0.41170994915386366 0.8404894920002332 0.0
H H 0.7724984209410236 0.3694209491538636 0.8786294920002331 0.0
C C 0.8747556794200364 0.3177410306613498 0.8469332207261437 0.0
H H 0.06696526301045534 0.11104920734741532 0.06392312623787562 0.0
H H 0.06696526301045534 0.11104920734741532 0.06392312623787562 0.0
H H 0.8592756794200365 0.2223590306613498 0.8183232207261438 0.0
H H 0.5682702378231718 0.9038432260654352 0.19344827193771358 0.0
Zn Zn 0.3374744598150807 0.8022818445081931 0.23110402647910355 0.0
O O 0.4472664446645265 0.6089244340337971 0.15587979404631858 0.0
O O 0.4353030098419613 0.8515799280854038 0.28020912003633053 0.0
O O 0.33993357520561734 0.7385560728790946 0.11737894564290961 0.0
N N 0.2322818115517534 0.549503178807079 -0.20180204183318834 0.0
N N 0.3080216210442428 0.3842731946392876 -0.2118592203415279 0.0
C C 0.3063799669023802 0.5867248527070162 -0.04199553528297642 0.0
H H 0.2739099669023802 0.6536448527070163 -0.03245553528297643 0.0
C C 0.3837669202164927 0.6504055630690554 0.10991015553418385 0.0
C C 0.3664703067891235 0.552474362918437 0.02147124268417187 0.0
C C 0.398023510961375 0.3870694573935692 -0.0672694861902905 0.0
H H 0.4294635109613749 0.31644945739356917 -0.07612948619029047 0.0
C C 0.2870716520697493 0.5290884094282586 -0.12272811926374395 0.0
C C 0.2516912891770409 0.44637751256828384 -0.2587223231218537 0.0
C C 0.3424878584803926 0.4224538610222287 -0.13313428758332316 0.0
C C 0.4064875021673553 0.45755964421271755 0.0031886687460009563 0.0
H H 0.4488175021673553 0.43653964421271757 0.048528668746000946 0.0
O O 0.15916981103246833 0.5517003902525996 -0.37698496852390906 0.0
H H 0.1840198110324684 0.6107103902525998 -0.39294496852390903 0.0
C C 0.20546221059284223 0.4144394129606906 -0.333547610260781 0.0
H H 0.2292222105928422 0.37215041296069057 -0.37168761026078095 0.0
C C 0.138970281457801 0.3273703660148227 -0.3327259672185523 0.0
H H 0.06696526301045534 0.11104920734741532 0.06392312623787562 0.0
H H 0.06696526301045534 0.11104920734741532 0.06392312623787562 0.0
H H 0.154450281457801 0.2319883660148227 -0.3041159672185524 0.0
H H 0.4343330098419613 0.883259928085404 0.31364912003633055 0.0
Zn Zn -0.15611577483132366 -0.3071698960359371 -0.25904289377967865 0.0
Zn Zn 0.0047412696812408036 -0.2554550191277021 -0.25247703894070694 0.0
O O -0.05484357980518275 -0.11086439462221426 -0.3369420438583317 0.0
O O -0.06667697390721047 -0.37002170623913166 -0.2236951413021049 0.0
O O -0.16371340416862362 -0.2174071237940441 -0.38297158985926566 0.0
N N -0.26929853580595847 -0.04602975214429775 -0.7041985439750457 0.0
N N -0.19090615030597208 0.13484015734279314 -0.709368612372903 0.0
C C -0.19981431111876402 -0.09057829288034897 -0.5401601962147199 0.0
H H -0.23228431111876405 -0.15749829288034892 -0.53062019621472 0.0
C C -0.10948043340658882 -0.14858669306376118 -0.38701081274797017 0.0
C C -0.12968222441593677 -0.05807712401775796 -0.4766678034846461 0.0
C C -0.10665771519161585 0.11109627149956923 -0.567319617391786 0.0
H H -0.07521771519161584 0.18171627149956923 -0.5761796173917859 0.0
C C -0.20271770854117013 -0.022861633039079197 -0.614206437301362 0.0
C C -0.25034159485210766 0.04977220636065222 -0.7586461733549218 0.0
C C -0.16883137251828723 0.07657590957130188 -0.6402954820378077 0.0
C C -0.07957074929126967 0.05023579119716173 -0.48339766171719845 0.0
H H -0.03724074929126968 0.07125579119716172 -0.4380576617171985 0.0
O O -0.3439483377521549 -0.05782927412530863 -0.8783637046488944 0.0
H H -0.31909833775215485 -0.11683927412530862 -0.8943237046488944 0.0
C C -0.2965221180990974 0.08430807952238382 -0.8460686572786017 0.0
H H -0.2727621180990974 0.12659707952238383 -0.8842086572786017 0.0
C C -0.3694675329059467 0.1780739232741756 -0.8409866859721443 0.0
H H 0.06696526301045534 0.11104920734741532 0.06392312623787562 0.0
H H 0.06696526301045534 0.11104920734741532 0.06392312623787562 0.0
H H -0.3539875329059467 0.27345592327417556 -0.8123766859721443 0.0
H H -0.06764697390721047 -0.40170170623913165 -0.19025514130210494 0.0
Zn Zn 0.15333675595584645 -0.2996878057280025 -0.2368676341334717 0.0
O O 0.051323891052739795 -0.11187508808769564 -0.15714218140553912 0.0
O O 0.06673354745508231 -0.36607820751602627 -0.2852722929730588 0.0
O O 0.1586826042147709 -0.21737597122641197 -0.11152287762013095 0.0
N N 0.2610680268769631 -0.04932667602018266 0.1936353854442826 0.0
N N 0.19033233118923823 0.12152023270812365 0.22482251817875873 0.0
C C 0.19902910792938638 -0.10026739885458469 0.03758664348075106 0.0
H H 0.23149910792938636 -0.1671873988545847 0.02804664348075107 0.0
C C 0.10730568393025541 -0.13471314602369874 -0.11273514460212267 0.0
C C 0.1370804143947605 -0.05763934591774026 -0.02291767692560919 0.0
C C 0.09617151899970741 0.10052585063055972 0.07087595879805192 0.0
H H 0.06473151899970742 0.17114585063055973 0.07973595879805191 0.0
C C 0.21267756763502987 -0.038064616813653175 0.11770278607806715 0.0
C C 0.25472536625681785 0.060438456610839256 0.2543084783991207 0.0
C C 0.16378616456360534 0.06975823592824154 0.13873317055128728 0.0
C C 0.08676016543327254 0.053017654537074126 -0.0018107347250739215 0.0
H H 0.044430165433272543 0.07403765453707413 -0.04715073472507392 0.0
O O 0.3370304555027744 -0.060972194676395926 0.37300929099625474 0.0
H H 0.31218045550277435 -0.11998219467639594 0.38896929099625477 0.0
C C 0.30269716713637246 0.07113756249500994 0.3357730983408648 0.0
H H 0.2789371671363724 0.11342656249500992 0.3739130983408647 0.0
C C 0.3655715459225005 0.17226136914827941 0.3303755625238317 0.0
H H 0.06696526301045534 0.11104920734741532 0.06392312623787562 0.0
H H 0.06696526301045534 0.11104920734741532 0.06392312623787562 0.0
H H 0.3500915459225005 0.26764336914827946 0.30176556252383185 0.0
H H 0.0677035474550823 -0.39775820751602625 -0.3187122929730588 0.0
Zn Zn 0.34260053616291547 0.20503671689068972 -0.2628784437347967 0.0
Zn Zn 0.5022590341700753 0.2568669348063547 -0.24997757561990244 0.0
O O 0.4397144103654213 0.40396092970680125 -0.34381498896864726 0.0
O O 0.44027725977645565 0.12178316292052213 -0.21576482848093873 0.0
O O 0.3355879975869643 0.267914966267957 -0.38813006338528416 0.0
N N 0.23011317343262833 0.45302041397571696 -0.6919642485367855 0.0
N N 0.3039884498891579 0.6185950966546094 -0.7156684081993215 0.0
C C 0.30243712167559056 0.4159988679370706 -0.5418187679860351 0.0
H H 0.2699671216755905 0.3490788679370706 -0.5322787679860352 0.0
C C 0.3796176302772826 0.3602962359753424 -0.3928969834984901 0.0
C C 0.3631276469743406 0.43664361827567133 -0.4847111561934205 0.0
C C 0.3994403917048469 0.6071606470782309 -0.5651208130274554 0.0
H H 0.43088039170484677 0.677780647078231 -0.5739808130274553 0.0
C C 0.2837148980781056 0.4686298616443524 -0.6236401226172911 0.0
C C 0.24718513030421813 0.5560039405299267 -0.7554528105183623 0.0
C C 0.33185856937441155 0.5846237521770138 -0.630438015357884 0.0
C C 0.41304339844324567 0.5392818021667892 -0.48185350134329114 0.0
H H 0.4553733984432456 0.5603018021667892 -0.43651350134329114 0.0
O O 0.16090591876456392 0.4615958170304153 -0.8635770818758067 0.0
H H 0.18575591876456393 0.4025858170304153 -0.8795370818758068 0.0
C C 0.2040766414175409 0.574232046414661 -0.8382746651243387 0.0
H H 0.22783664141754092 0.616521046414661 -0.8764146651243386 0.0
C C 0.13657627263389086 0.6740513010540178 -0.8406387713372637 0.0
H H 0.06696526301045534 0.11104920734741532 0.06392312623787562 0.0
H H 0.06696526301045534 0.11104920734741532 0.06392312623787562 0.0
H H 0.1520562726338909 0.769433301054018 -0.8120287713372638 0.0
H H 0.4393072597764556 0.09010316292052215 -0.18232482848093873 0.0
Zn Zn 0.6606559445036064 0.1995460189914289 -0.22744166548806657 0.0
O O 0.5592650165795001 0.3889313188792017 -0.16622810575834363 0.0
O O 0.5666559408485204 0.13787332610490755 -0.28478602851432655 0.0
O O 0.6641677245285675 0.28027071261514763 -0.11284658932757227 0.0
N N 0.7674425593223689 0.46061125698709504 0.19002510416366883 0.0
N N 0.696582651142168 0.6352635152727248 0.21582765186124056 0.0
C C 0.7014740885301882 0.3910608259713642 0.04319399693585505 0.0
H H 0.7339440885301881 0.32414082597136423 0.03365399693585506 0.0
C C 0.6114555524804772 0.34685619598643724 -0.11288894889648964 0.0
C C 0.6381342295198382 0.42748128103442395 -0.01696478079260646 0.0
C C 0.5993283536043224 0.6159140560026614 0.06351768320064309 0.0
H H 0.5678883536043223 0.6865340560026615 0.07237768320064307 0.0
C C 0.702539999517662 0.46947966390168067 0.11565768573899651 0.0
C C 0.7452843836807153 0.5428116370713554 0.24425107253287373 0.0
C C 0.6569436103502763 0.5661499797140325 0.12843460483097496 0.0
C C 0.5904972246490041 0.5489590410655455 -0.00981841093519213 0.0
H H 0.548167224649004 0.5699790410655454 -0.05515841093519212 0.0
O O 0.8328738111071285 0.45671085488066965 0.3761693255841074 0.0
H H 0.8080238111071285 0.3977008548806696 0.3921293255841074 0.0
C C 0.7943695479213917 0.5957826777414522 0.3382414822742185 0.0
H H 0.7706095479213918 0.6380716777414521 0.3763814822742184 0.0
C C 0.8688845029698726 0.6823146733520181 0.3309305562695335 0.0
H H 0.06696526301045534 0.11104920734741532 0.06392312623787562 0.0
H H 0.06696526301045534 0.11104920734741532 0.06392312623787562 0.0
H H 0.8534045029698727 0.7776966733520182 0.30232055626953364 0.0
H H 0.5676259408485204 0.10619332610490753 -0.31822602851432663 0.0
