_cell_length_a 20.4364
_cell_length_b 9.005017
_cell_length_c 16.6723
_cell_angle_alpha 90.0
_cell_angle_beta 110.2303
_cell_angle_gamma 90.0
_symmetry_space_group_name_H-M         'P 1'
_symmetry_Int_Tables_number            1
loop_
_symmetry_equiv_pos_as_xyz
   'x, y, z'
                         
loop_
_atom_site_label
_atom_site_type_symbol
_atom_site_fract_x 
_atom_site_fract_y
_atom_site_fract_z
_atom_site_charge
Zn Zn 0.1563613279741585 0.31700965117975993 0.25948187303565823 0.0
Zn Zn 0.00013439299195339185 0.25144143871005237 0.249785050804712 0.0
O O 0.055614497396109505 0.09933536542436687 0.3460494579617311 0.0
O O 0.06398846894898692 0.37075731563251446 0.2264462003625698 0.0
O O 0.15277607031699283 0.212643441415089 0.37829885457166673 0.0
N N 0.2724432781877439 0.028982470640774177 0.6994995937991786 0.0
N N 0.19253927984150496 -0.14325695865654908 0.7200720500060033 0.0
C C 0.1946996774814915 0.0933630211731575 0.5405471760273054 0.0
H H 0.22716967748149153 0.16028302117315746 0.5310071760273055 0.0
C C 0.11125152931817497 0.1526863322004012 0.38603130187914025 0.0
C C 0.13025290999681396 0.044728869844855745 0.4692025428725985 0.0
C C 0.09283198747306713 -0.11319936994598992 0.5626988769294853 0.0
H H 0.06139198747306712 -0.1838193699459899 0.5715588769294853 0.0
C C 0.21358245167267326 0.011271636252359277 0.6238035680692842 0.0
C C 0.253636533422664 -0.05613893977815313 0.7456335252982275 0.0
C C 0.16540659851536954 -0.09620084973805956 0.6300598815739861 0.0
C C 0.08377757047969056 -0.04839793212627617 0.4823160274295522 0.0
H H 0.041447570479690554 -0.06941793212627616 0.4369760274295522 0.0
O O 0.3425667084108295 0.04411227310280461 0.878863659794094 0.0
H H 0.31771670841082944 0.10312227310280461 0.8948236597940941 0.0
C C 0.3002420727716958 -0.0668982882265849 0.8418616913871173 0.0
H H 0.2764820727716958 -0.10918728822658491 0.8800016913871173 0.0
C C 0.3681540479503616 -0.17150971514926444 0.8449285872101093 0.0
H H 0.06696526301045534 0.11104920734741532 0.06392312623787562 0.0
H H 0.06696526301045534 0.11104920734741532 0.06392312623787562 0.0
H H 0.3526740479503616 -0.2668917151492644 0.8163185872101093 0.0
H H 0.06495846894898694 0.40243731563251445 0.1930062003625698 0.0
Zn Zn -0.16434714048033627 0.32104257628375804 0.22767116030468207 0.0
O O -0.050547493355069494 0.11436097005180218 0.15746623798839318 0.0
O O -0.06837362881056061 0.37312268911078433 0.28765880905943164 0.0
O O -0.16469441938148488 0.22524444618893655 0.11973076195180403 0.0
N N -0.2666953296790521 0.02577358067860894 -0.20537602062195817 0.0
N N -0.1864865444901576 -0.12095393775866194 -0.21377916230473246 0.0
C C -0.19725107858235555 0.08534676745447664 -0.04910732886678569 0.0
H H -0.22972107858235555 0.15226676745447662 -0.0395673288667857 0.0
C C -0.10782243194301329 0.13801528120251033 0.11310581179137498 0.0
C C -0.12948609480601966 0.07944715245480427 0.02618268009964478 0.0
C C -0.10408950164423227 -0.11824745334639923 -0.05817771866758797 0.0
H H -0.07264950164423227 -0.18886745334639923 -0.06703771866758795 0.0
C C -0.21669257367952088 0.02926608953088662 -0.12496106359974142 0.0
C C -0.24987421023777875 -0.05630786766870773 -0.25489586399018793 0.0
C C -0.16324795706883471 -0.06333407196094955 -0.12382613249115418 0.0
C C -0.08475950920047579 -0.0545825063372923 0.015531652433411551 0.0
H H -0.042429509200475786 -0.0756025063372923 0.06087165243341154 0.0
O O -0.3337018110417228 0.05472268679868697 -0.3632950893122475 0.0
H H -0.3088518110417228 0.11373268679868698 -0.37925508931224755 0.0
C C -0.2969361692318754 -0.06998190479792807 -0.3399051316607954 0.0
H H -0.2731761692318754 -0.11227090479792805 -0.37804513166079534 0.0
C C -0.3651145854791113 -0.18079831952161263 -0.34400917293229066 0.0
H H 0.06696526301045534 0.11104920734741532 0.06392312623787562 0.0
H H 0.06696526301045534 0.11104920734741532 0.06392312623787562 0.0
H H -0.34963458547911125 -0.27618031952161265 -0.31539917293229075 0.0
H H -0.0693436288105606 0.4048026891107843 0.32109880905943167 0.0
Zn Zn 0.6645323305773251 0.7906449891258768 0.2717747999427043 0.0
Zn Zn 0.5040578439531005 0.75438143919601 0.2576634701663224 0.0
O O 0.5545263343626495 0.6286752121043528 0.34483725623093553 0.0
O O 0.5671778855380147 0.8533624496299247 0.2247080830384987 0.0
O O 0.6527140321793917 0.7198103231906178 0.38110759329511545 0.0
N N 0.7671046338742316 0.5369998533278346 0.6933955606866656 0.0
N N 0.6966148269823047 0.3684027945999315 0.7240310557244748 0.0
C C 0.6899046504846527 0.5957618972958706 0.5407398977388104 0.0
H H 0.7223746504846528 0.6626818972958707 0.5311998977388105 0.0
C C 0.6203522666046853 0.645755498733488 0.39833146306589173 0.0
C C 0.6315709105882075 0.5789879925427699 0.4874121891065906 0.0
C C 0.5955013507987512 0.3762421037387512 0.5615904362204728 0.0
H H 0.5640613507987513 0.3056221037387512 0.5704504362204728 0.0
C C 0.7142947309436729 0.5347175590219045 0.6137357699876618 0.0
C C 0.7463732569925761 0.43165501351890184 0.7490468246992198 0.0
C C 0.6592136766769285 0.4382107467359309 0.6286300071782215 0.0
C C 0.5841856575748285 0.4623143236873648 0.48824226246192504 0.0
H H 0.5418556575748286 0.44129432368736476 0.44290226246192504 0.0
O O 0.8300835695121578 0.5653162429091794 0.8713372211886277 0.0
H H 0.8052335695121577 0.6243262429091794 0.8872972211886277 0.0
C C 0.8045291114178108 0.416848939193567 0.8403688203276302 0.0
H H 0.7807691114178109 0.37455993919356695 0.8785088203276301 0.0
C C 0.8688796701194326 0.33775918227503515 0.8336447897965995 0.0
H H 0.06696526301045534 0.11104920734741532 0.06392312623787562 0.0
H H 0.06696526301045534 0.11104920734741532 0.06392312623787562 0.0
H H 0.8533996701194326 0.24237718227503516 0.8050347897965996 0.0
H H 0.5681478855380148 0.8850424496299248 0.1912680830384987 0.0
Zn Zn 0.34137640193926805 0.8115454957520067 0.2284866226166172 0.0
O O 0.44673969048854845 0.6294706868013376 0.1690637521998904 0.0
O O 0.43353580324948754 0.8519696762830228 0.2805633110735923 0.0
O O 0.34157359926498015 0.7326157399603911 0.11690351465724107 0.0
N N 0.23693841457662645 0.5504749218987203 -0.19305648941035086 0.0
N N 0.307283275484666 0.3712631151380887 -0.2109124343514721 0.0
C C 0.30677572094200733 0.5867253973669881 -0.04087632464947773 0.0
H H 0.27430572094200734 0.6536453973669882 -0.031336324649477734 0.0
C C 0.38304425258611335 0.6443225668037049 0.11675503896774787 0.0
C C 0.36299324431495056 0.57574455364989 0.022048572840150056 0.0
C C 0.405519527610443 0.38731433051135256 -0.05908989854613989 0.0
H H 0.436959527610443 0.31669433051135254 -0.06794989854613988 0.0
C C 0.2960933164688175 0.5405932097905028 -0.12002302446693686 0.0
C C 0.24676111955964503 0.4338805809111313 -0.25374743462231164 0.0
C C 0.33544740385681043 0.4377719144914039 -0.1308830871256077 0.0
C C 0.40768377972262215 0.4733144896573637 0.012985252176534644 0.0
H H 0.4500137797226222 0.4522944896573638 0.058325252176534635 0.0
O O 0.16864397901972272 0.5460820230653776 -0.36207511173543017 0.0
H H 0.19349397901972273 0.6050920230653778 -0.37803511173543014 0.0
C C 0.202627251350856 0.40687305968239984 -0.33107877982802447 0.0
H H 0.22638725135085597 0.3645840596823998 -0.3692187798280244 0.0
C C 0.13085246281354385 0.306955985478502 -0.3484362001070334 0.0
H H 0.06696526301045534 0.11104920734741532 0.06392312623787562 0.0
H H 0.06696526301045534 0.11104920734741532 0.06392312623787562 0.0
H H 0.1463324628135439 0.21157398547850204 -0.31982620010703355 0.0
H H 0.43256580324948757 0.8836496762830229 0.3140033110735923 0.0
Zn Zn -0.16375301670254205 -0.31406147854435323 -0.27295629443222585 0.0
Zn Zn -0.0013742286187786409 -0.25324674225184 -0.2526743093611001 0.0
O O -0.052370393956105585 -0.11370906629750327 -0.3325969728403333 0.0
O O -0.06058829135490822 -0.37270369856561464 -0.22368067369087613 0.0
O O -0.16449942962111963 -0.21199371682793455 -0.3841800190028628 0.0
N N -0.2688694971968613 -0.030018335323209674 -0.6943106711469519 0.0
N N -0.1843223746647165 0.11906434525441031 -0.7110820090833782 0.0
C C -0.19185206079329822 -0.0856145675853994 -0.5486741400660272 0.0
H H -0.22432206079329825 -0.15253456758539938 -0.5391341400660273 0.0
C C -0.1072272199251081 -0.1287525742317092 -0.39158279739197444 0.0
C C -0.12754140460415167 -0.07576172122531494 -0.4870898564155728 0.0
C C -0.09760097037554094 0.13179827720873935 -0.5628533536877752 0.0
H H -0.06616097037554092 0.20241827720873937 -0.5717133536877751 0.0
C C -0.20653888654555141 -0.020831502653634235 -0.6185728319528951 0.0
C C -0.2421741838901798 0.04019961134559247 -0.7473778532903554 0.0
C C -0.16177099146990595 0.08474160475463978 -0.6267459264189642 0.0
C C -0.09161619388266352 0.0410016807717921 -0.4972813857316672 0.0
H H -0.049286193882663525 0.06202168077179209 -0.4519413857316672 0.0
O O -0.3376246963616235 -0.04630694443706245 -0.8813483865780609 0.0
H H -0.3127746963616235 -0.10531694443706245 -0.8973083865780609 0.0
C C -0.2925712586261825 0.08571533746445424 -0.8349825819621762 0.0
H H -0.2688112586261825 0.12800433746445425 -0.8731225819621762 0.0
C C -0.3720291076674175 0.1922416468691186 -0.8323730503896897 0.0
H H 0.06696526301045534 0.11104920734741532 0.06392312623787562 0.0
H H 0.06696526301045534 0.11104920734741532 0.06392312623787562 0.0
H H -0.35654910766741754 0.2876236468691185 -0.8037630503896898 0.0
H H -0.06155829135490823 -0.4043836985656146 -0.19024067369087616 0.0
Zn Zn 0.1631014833886367 -0.319051895170725 -0.22463770776648026 0.0
O O 0.05088824765276819 -0.12063471027342768 -0.16267621028538873 0.0
O O 0.07035289089474096 -0.363694347399867 -0.2761616213329455 0.0
O O 0.1537006092065542 -0.2343302786038228 -0.12784844162012599 0.0
N N 0.2704247241727084 -0.04897769945698721 0.1925576515369658 0.0
N N 0.18895265198449918 0.11507909871621495 0.2127907628455607 0.0
C C 0.18775343636795447 -0.10011692569526659 0.041814391418276246 0.0
H H 0.22022343636795447 -0.1670369256952666 0.03227439141827625 0.0
C C 0.11184888625068104 -0.1354710923354339 -0.0959864105904019 0.0
C C 0.13478292227884045 -0.07328653874998366 -0.019600047308958084 0.0
C C 0.09282656281107086 0.13237770476457267 0.06621339715555546 0.0
H H 0.061386562811070876 0.20299770476457263 0.07507339715555544 0.0
C C 0.21207886009305457 -0.041171634075348254 0.11855262542635091 0.0
C C 0.24938403099985756 0.061659053924458924 0.25066248874592323 0.0
C C 0.171168808704438 0.08225976000467616 0.13421365436153102 0.0
C C 0.09182517963098244 0.03550313506729755 -0.017905061423502434 0.0
H H 0.049495179630982454 0.05652313506729753 -0.06324506142350242 0.0
O O 0.33879667236246186 -0.040426178278551876 0.37222286966235296 0.0
H H 0.3139466723624618 -0.09943617827855189 0.38818286966235294 0.0
C C 0.2937712633996602 0.06513847800683477 0.3350385154954271 0.0
H H 0.2700112633996602 0.10742747800683475 0.3731785154954271 0.0
C C 0.365077521968922 0.18349281481820667 0.3345348130870524 0.0
H H 0.06696526301045534 0.11104920734741532 0.06392312623787562 0.0
H H 0.06696526301045534 0.11104920734741532 0.06392312623787562 0.0
H H 0.3495975219689221 0.2788748148182067 0.30592481308705255 0.0
H H 0.07132289089474093 -0.395374347399867 -0.3096016213329455 0.0
Zn Zn 0.34233193826225383 0.20286880509647556 -0.26064934206271395 0.0
Zn Zn 0.5017170696050008 0.26176651783468835 -0.2519565143427277 0.0
O O 0.44315269337223173 0.3950480927203587 -0.3348818765684057 0.0
O O 0.44187618434729603 0.1425238101807816 -0.22017860103537407 0.0
O O 0.3494454750930638 0.2841130125127393 -0.38041222717676204 0.0
N N 0.23456228023769926 0.46116487393461364 -0.7034578285118113 0.0
N N 0.3062186828852408 0.6414752695355995 -0.7195121683106512 0.0
C C 0.31125578770499895 0.4057031223790806 -0.5377628084355537 0.0
H H 0.2787857877049989 0.33878312237908065 -0.5282228084355538 0.0
C C 0.39178801210595593 0.3673114957107325 -0.38511366389674156 0.0
C C 0.3733036160150507 0.45231665310222746 -0.47515988877097887 0.0
C C 0.3984030418237354 0.5952958993444416 -0.569813716491145 0.0
H H 0.4298430418237353 0.6659158993444416 -0.578673716491145 0.0
C C 0.29170368600794 0.48963300940751414 -0.6169912549125453 0.0
C C 0.2460978520823914 0.5518866114977233 -0.7559942402526073 0.0
C C 0.3403894904372067 0.5914750287468855 -0.6346660087336891 0.0
C C 0.4179278411187703 0.529760951688498 -0.49869872000029614 0.0
H H 0.4602578411187703 0.550780951688498 -0.4533587200002962 0.0
O O 0.1666710704703352 0.46834554742504025 -0.8751672487447213 0.0
H H 0.1915210704703352 0.40933554742504025 -0.8911272487447213 0.0
C C 0.20148521819949988 0.5952356306986591 -0.846022199354781 0.0
H H 0.22524521819949986 0.6375246306986592 -0.8841621993547809 0.0
C C 0.13127762765518547 0.6690626953483041 -0.8373203273832219 0.0
H H 0.06696526301045534 0.11104920734741532 0.06392312623787562 0.0
H H 0.06696526301045534 0.11104920734741532 0.06392312623787562 0.0
H H 0.14675762765518546 0.7644446953483043 -0.808710327383222 0.0
H H 0.4409061843472961 0.11084381018078164 -0.1867386010353741 0.0
Zn Zn 0.6570969066225978 0.18727369394603238 -0.2329721821256245 0.0
O O 0.5546126965645864 0.3731876907779085 -0.16895109713776832 0.0
O O 0.5673390478506402 0.12368567740815851 -0.2899351182851153 0.0
O O 0.6585987729473815 0.2788299345857724 -0.12579086268286246 0.0
N N 0.7727424870384251 0.44282581763690304 0.19355810239196522 0.0
N N 0.6981204515005669 0.6281293021458724 0.21885059442721388 0.0
C C 0.6896681057376558 0.4016370700274082 0.03292067508626813 0.0
H H 0.7221381057376558 0.33471707002740825 0.023380675086268135 0.0
C C 0.6193624547223096 0.3489608396242819 -0.09903700498664109 0.0
C C 0.6363166322337949 0.4541353122270605 -0.025685916465046383 0.0
C C 0.5990780119398511 0.6242537009110939 0.06213877340521991 0.0
H H 0.5676380119398512 0.694873700911094 0.07099877340521989 0.0
C C 0.7050994942316875 0.4838074803537679 0.11336027252540115 0.0
C C 0.7549905508215462 0.5351613690353141 0.2547294598534726 0.0
C C 0.6627079753768798 0.5798755554265659 0.12133908573543757 0.0
C C 0.587693006469243 0.5344152127405721 -0.01061749177491752 0.0
H H 0.545363006469243 0.5554352127405721 -0.05595749177491751 0.0
O O 0.8431080179877984 0.43543433618557975 0.374443760597081 0.0
H H 0.8182580179877984 0.3764243361855797 0.390403760597081 0.0
C C 0.7990744370444021 0.5753144471769182 0.3357463747703456 0.0
H H 0.7753144370444021 0.6176034471769181 0.37388637477034553 0.0
C C 0.8666498627012903 0.6677490015003497 0.3320312887052686 0.0
H H 0.06696526301045534 0.11104920734741532 0.06392312623787562 0.0
H H 0.06696526301045534 0.11104920734741532 0.06392312623787562 0.0
H H 0.8511698627012904 0.7631310015003497 0.30342128870526874 0.0
H H 0.5683090478506402 0.09200567740815853 -0.3233751182851154 0.0
