_cell_length_a 20.4364
_cell_length_b 9.005017
_cell_length_c 16.6723
_cell_angle_alpha 90.0
_cell_angle_beta 110.2303
_cell_angle_gamma 90.0
_symmetry_space_group_name_H-M         'P 1'
_symmetry_Int_Tables_number            1
loop_
_symmetry_equiv_pos_as_xyz
   'x, y, z'
                         
loop_
_atom_site_label
_atom_site_type_symbol
_atom_site_fract_x 
_atom_site_fract_y
_atom_site_fract_z
_atom_site_charge
Zn Zn 0.15931591767365852 0.3053752856727476 0.26564521384087 0.0
Zn Zn 0.001071076084531244 0.2311588399176969 0.2455969075075494 0.0
O O 0.055363307690064124 0.101356536400815 0.33316649024581063 0.0
O O 0.06275885510124914 0.35721824459312346 0.22735358323823227 0.0
O O 0.1578529011523871 0.23913226542292104 0.38613944069575057 0.0
N N 0.25876394345149123 0.036108874335866285 0.688717666112157 0.0
N N 0.19268088627571378 -0.1330918570386333 0.715941389308355 0.0
C C 0.1890284795490359 0.09234795296627632 0.5406643404336583 0.0
H H 0.22149847954903593 0.1592679529662763 0.5311243404336583 0.0
C C 0.11216889398456814 0.12261734623496329 0.38907833902917593 0.0
C C 0.1237244276730983 0.062203735555456524 0.4680369753470628 0.0
C C 0.10397282387200628 -0.1311767341550665 0.5651156843475152 0.0
H H 0.07253282387200626 -0.2017967341550665 0.5739756843475152 0.0
C C 0.2051741732936621 0.034585748496985064 0.6187525796721668 0.0
C C 0.24589635407586294 -0.05529318015534538 0.7542374732806797 0.0
C C 0.152943518043337 -0.08456435821382578 0.6226675636562852 0.0
C C 0.08243709654923516 -0.04542522408348963 0.4837108949003785 0.0
H H 0.040107096549235145 -0.06644522408348963 0.43837089490037845 0.0
O O 0.34118881832857856 0.04457242890405286 0.8812024427505789 0.0
H H 0.3163388183285785 0.10358242890405286 0.897162442750579 0.0
C C 0.28950220352303696 -0.0895513809549206 0.8326416755189535 0.0
H H 0.26574220352303696 -0.1318403809549206 0.8707816755189535 0.0
C C 0.36205514979566256 -0.16772062632524956 0.8324002603102755 0.0
H H 0.06696526301045534 0.11104920734741532 0.06392312623787562 0.0
H H 0.06696526301045534 0.11104920734741532 0.06392312623787562 0.0
H H 0.34657514979566256 -0.2631026263252495 0.8037902603102756 0.0
H H 0.06372885510124913 0.3888982445931234 0.19391358323823227 0.0
Zn Zn -0.1644361607343037 0.3064679332563893 0.22650278402979096 0.0
O O -0.05198668035157085 0.11431170043453598 0.1549126866723744 0.0
O O -0.06841422086596366 0.3648760358787749 0.2851415238986738 0.0
O O -0.15302686137154384 0.2111955300194125 0.12485051133780856 0.0
N N -0.26108150340864344 0.0404140067802991 -0.19701064121682496 0.0
N N -0.20005887028401853 -0.12862384825608622 -0.22158552696365755 0.0
C C -0.19940694159975486 0.08340423926988175 -0.041403383739017016 0.0
H H -0.23187694159975483 0.15032423926988175 -0.03186338373901702 0.0
C C -0.10734806885520068 0.15177535422293428 0.11359780190429035 0.0
C C -0.13121797751740344 0.0721520395452661 0.03261362490254723 0.0
C C -0.10547791442226238 -0.09692958304095739 -0.07137580486217907 0.0
H H -0.07403791442226237 -0.1675495830409574 -0.08023580486217904 0.0
C C -0.21472764643040748 0.027665486286600094 -0.11352160648716265 0.0
C C -0.2567719627886915 -0.06483381371456066 -0.25384236663911514 0.0
C C -0.15852801273343084 -0.06809851260547167 -0.12304685941291812 0.0
C C -0.08479018117771996 -0.0500242960039089 0.0012505406728656112 0.0
H H -0.04246018117771995 -0.0710442960039089 0.0465905406728656 0.0
O O -0.33075912818394715 0.06564502342637592 -0.3616038900596574 0.0
H H -0.3059091281839471 0.12465502342637592 -0.37756389005965735 0.0
C C -0.30341934432143525 -0.07198385223335949 -0.3403406303630195 0.0
H H -0.27965934432143524 -0.11427285223335948 -0.37848063036301943 0.0
C C -0.3697967053161866 -0.16420301586679362 -0.3299094146431537 0.0
H H 0.06696526301045534 0.11104920734741532 0.06392312623787562 0.0
H H 0.06696526301045534 0.11104920734741532 0.06392312623787562 0.0
H H -0.35431670531618653 -0.2595850158667936 -0.30129941464315385 0.0
H H -0.06938422086596366 0.39655603587877486 0.3185815238986739 0.0
Zn Zn 0.6613832299668564 0.791932239849029 0.2635177643152715 0.0
Zn Zn 0.5046056722521746 0.7603692199940247 0.25267227639911866 0.0
O O 0.5529934648368777 0.626336049463083 0.3319863248790893 0.0
O O 0.5685646583701374 0.8610526343049203 0.22473712406528312 0.0
O O 0.656316675136461 0.7250462764169181 0.37790581688069064 0.0
N N 0.7581446373427008 0.5391419267423242 0.6909910229833551 0.0
N N 0.6919319226188304 0.3846863064790153 0.7186170011381856 0.0
C C 0.689222313720677 0.5816164796455608 0.533719508027146 0.0
H H 0.7216923137206771 0.6485364796455609 0.5241795080271461 0.0
C C 0.6143800084332781 0.6484821906480512 0.3871627094495023 0.0
C C 0.6346398683296463 0.5626438239997451 0.48089440856068844 0.0
C C 0.6059967843178066 0.3931016368839962 0.565405303710973 0.0
H H 0.5745567843178065 0.32248163688399617 0.574265303710973 0.0
C C 0.706797839382384 0.5369835562592529 0.6240824906601514 0.0
C C 0.743192926476244 0.4547984830708473 0.7448103104714893 0.0
C C 0.6605719265651416 0.4191309069774458 0.6327493882115286 0.0
C C 0.5818867304603726 0.46041560264183273 0.4978213193542792 0.0
H H 0.5395567304603727 0.4393956026418327 0.4524813193542792 0.0
O O 0.8448781853709997 0.5522893707334339 0.8809466899531354 0.0
H H 0.8200281853709998 0.6112993707334339 0.8969066899531355 0.0
C C 0.7955752668923466 0.43408724980683505 0.8476916833414764 0.0
H H 0.7718152668923465 0.391798249806835 0.8858316833414763 0.0
C C 0.8677963940962625 0.3114325811903162 0.8350353803645856 0.0
H H 0.06696526301045534 0.11104920734741532 0.06392312623787562 0.0
H H 0.06696526301045534 0.11104920734741532 0.06392312623787562 0.0
H H 0.8523163940962626 0.2160505811903162 0.8064253803645857 0.0
H H 0.5695346583701375 0.8927326343049202 0.19129712406528313 0.0
Zn Zn 0.33265159942735745 0.8205368485718855 0.234669260116588 0.0
O O 0.4413019288860334 0.596005210038617 0.16378144610554699 0.0
O O 0.43433261581706983 0.8614843459292689 0.2869496464364097 0.0
O O 0.34129357617485834 0.7396192246655963 0.12697646941496996 0.0
N N 0.23780661520192847 0.5429992409362548 -0.1969949643925939 0.0
N N 0.30992260936914745 0.3766423690959139 -0.2128674019018683 0.0
C C 0.3122237536824764 0.5977368487586989 -0.03699767831282267 0.0
H H 0.2797537536824764 0.664656848758699 -0.027457678312822677 0.0
C C 0.379457587561315 0.6519171132274525 0.10670187911467137 0.0
C C 0.3703062677672675 0.569853226352411 0.01720134617394658 0.0
C C 0.40299114406694747 0.3729525331353593 -0.07336705756622024 0.0
H H 0.43443114406694744 0.3023325331353593 -0.08222705756622022 0.0
C C 0.29693787042282005 0.5264333987902443 -0.12069402790793159 0.0
C C 0.24513344725921934 0.4377467168897943 -0.2585309401068302 0.0
C C 0.3443106086888992 0.41978764971732724 -0.1305088714928481 0.0
C C 0.4063342795674471 0.4618849806079624 0.007563372470395662 0.0
H H 0.44866427956744714 0.44086498060796236 0.05290337247039565 0.0
O O 0.17110198624395861 0.5584941129336497 -0.3643638679386905 0.0
H H 0.19595198624395868 0.6175041129336497 -0.3803238679386905 0.0
C C 0.2033094945879494 0.43518622564221393 -0.342168419581644 0.0
H H 0.22706949458794937 0.39289722564221385 -0.3803084195816439 0.0
C C 0.13875914079845228 0.30673348545082346 -0.34072733421527346 0.0
H H 0.06696526301045534 0.11104920734741532 0.06392312623787562 0.0
H H 0.06696526301045534 0.11104920734741532 0.06392312623787562 0.0
H H 0.15423914079845227 0.2113514854508235 -0.31211733421527355 0.0
H H 0.43336261581706986 0.8931643459292691 0.3203896464364097 0.0
Zn Zn -0.15731460678453216 -0.2881006892948878 -0.26262074752601655 0.0
Zn Zn -0.0034643848351459906 -0.23243322085945847 -0.25647505160179523 0.0
O O -0.06273696002718912 -0.1240237350164422 -0.337486600121983 0.0
O O -0.059263491135513456 -0.36910485810108734 -0.22033339737504798 0.0
O O -0.1576644289257085 -0.2205788849466414 -0.37420474222271266 0.0
N N -0.2622752559812197 -0.0575200789114363 -0.7015581029262107 0.0
N N -0.18543314257923124 0.11558336723015826 -0.7231918080523587 0.0
C C -0.2017320320501919 -0.11045309135279849 -0.5435839346857018 0.0
H H -0.23420203205019194 -0.17737309135279844 -0.5340439346857019 0.0
C C -0.11286134958521599 -0.13094674144899998 -0.3835754607614823 0.0
C C -0.13533347550167785 -0.053839271578739516 -0.47960037810225675 0.0
C C -0.099322623068731 0.12460702998731886 -0.5691574413503947 0.0
H H -0.067882623068731 0.19522702998731886 -0.5780174413503946 0.0
C C -0.2121032103212457 -0.019426916577564454 -0.6270200048363991 0.0
C C -0.25168794031521363 0.06001550846642683 -0.7427419037330634 0.0
C C -0.16126281362690384 0.08530084771609807 -0.6365745818561095 0.0
C C -0.09320356985992807 0.024493699636291617 -0.49902118613912017 0.0
H H -0.05087356985992808 0.04551369963629161 -0.4536811861391202 0.0
O O -0.3359486022970289 -0.046778714866640154 -0.8682608235122544 0.0
H H -0.3110986022970289 -0.10578871486664017 -0.8842208235122544 0.0
C C -0.2935295976840613 0.07442643761566854 -0.8327436670267252 0.0
H H -0.2697695976840613 0.11671543761566854 -0.8708836670267252 0.0
C C -0.36759293961587813 0.16115401866727655 -0.8480293422274967 0.0
H H 0.06696526301045534 0.11104920734741532 0.06392312623787562 0.0
H H 0.06696526301045534 0.11104920734741532 0.06392312623787562 0.0
H H -0.35211293961587814 0.2565360186672765 -0.8194193422274968 0.0
H H -0.06023349113551346 -0.40078485810108727 -0.186893397375048 0.0
Zn Zn 0.15981196426351435 -0.2915053998194897 -0.2296463619429505 0.0
O O 0.05916135170757034 -0.11277012649398814 -0.158677392839075 0.0
O O 0.06655625755019023 -0.3704077756222568 -0.2812683997703968 0.0
O O 0.16504470016439776 -0.21457844943656143 -0.11791185398788037 0.0
N N 0.27296656832889415 -0.05004588521910052 0.19917814933149183 0.0
N N 0.18476479111228092 0.141199059688507 0.22109814336697392 0.0
C C 0.19310767164347906 -0.09796758002676934 0.044659476209064596 0.0
H H 0.22557767164347906 -0.16488758002676934 0.0351194762090646 0.0
C C 0.1158456482179148 -0.12792682968562427 -0.10454682985574137 0.0
C C 0.14150004630192362 -0.06438834370398883 -0.015673276609117038 0.0
C C 0.0915933973690481 0.10944479226991367 0.06021132984592862 0.0
H H 0.0601533973690481 0.18006479226991368 0.0690713298459286 0.0
C C 0.21613229861511205 -0.033779564989195314 0.12783606950618254 0.0
C C 0.24660642671965946 0.0545909699825365 0.255318131944816 0.0
C C 0.1588138089228364 0.07421457609941885 0.1298403482614507 0.0
C C 0.08595453006842327 0.058309596694762406 -0.014610882520240728 0.0
H H 0.043624530068423276 0.07932959669476242 -0.059950882520240716 0.0
O O 0.34004088398029303 -0.05705877227582983 0.3614403559837704 0.0
H H 0.315190883980293 -0.11606877227582983 0.37740035598377036 0.0
C C 0.2990825908504676 0.07485729534623159 0.331571260347193 0.0
H H 0.2753225908504676 0.11714629534623155 0.3697112603471929 0.0
C C 0.37567565651656826 0.17999784108451802 0.34184745800300387 0.0
H H 0.06696526301045534 0.11104920734741532 0.06392312623787562 0.0
H H 0.06696526301045534 0.11104920734741532 0.06392312623787562 0.0
H H 0.36019565651656826 0.275379841084518 0.313237458003004 0.0
H H 0.06752625755019019 -0.4020877756222568 -0.31470839977039683 0.0
Zn Zn 0.34584436404030194 0.2120565606464773 -0.2659930369992772 0.0
Zn Zn 0.49365205231813397 0.2350180207251034 -0.24973457394418064 0.0
O O 0.4416965025452888 0.3926573550920425 -0.33299221842696425 0.0
O O 0.43336980972907546 0.12958767206911653 -0.2103148700565769 0.0
O O 0.34346180676726795 0.28235950429189444 -0.3731605917441528 0.0
N N 0.23083895869693163 0.46917439669391053 -0.698159312175424 0.0
N N 0.30762634255595356 0.6398055395777339 -0.7240060480316789 0.0
C C 0.30402024768334046 0.42177430663409093 -0.5445596436353505 0.0
H H 0.2715502476833404 0.35485430663409095 -0.5350196436353506 0.0
C C 0.37984734662800895 0.3647815390314598 -0.3989205558171507 0.0
C C 0.3652609824987197 0.4436278703133634 -0.48415749873686137 0.0
C C 0.4072243688999663 0.616114894554528 -0.5646793873633945 0.0
H H 0.4386643688999662 0.686734894554528 -0.5735393873633944 0.0
C C 0.29853734096576745 0.4811145927224451 -0.6194127732942522 0.0
C C 0.24711821470815695 0.5536536225723344 -0.7599417126263615 0.0
C C 0.3378890444440082 0.5707170363323189 -0.6316650553779503 0.0
C C 0.4175932681486726 0.556253663340491 -0.4883516451026492 0.0
H H 0.4599232681486727 0.5772736633404909 -0.4430116451026493 0.0
O O 0.16531841966722638 0.43983515161889963 -0.8760676936264702 0.0
H H 0.1901684196672264 0.3808251516188995 -0.8920276936264702 0.0
C C 0.197713699296053 0.5875501511493019 -0.8412896652049051 0.0
H H 0.22147369929605298 0.6298391511493019 -0.8794296652049051 0.0
C C 0.13802459761320704 0.6716138761970648 -0.8347705563198565 0.0
H H 0.06696526301045534 0.11104920734741532 0.06392312623787562 0.0
H H 0.06696526301045534 0.11104920734741532 0.06392312623787562 0.0
H H 0.1535045976132071 0.766995876197065 -0.8061605563198566 0.0
H H 0.4323998097290755 0.09790767206911653 -0.17687487005657693 0.0
Zn Zn 0.65483513835784 0.2094313451026933 -0.23369170920625548 0.0
O O 0.5543799542186809 0.39457244982816886 -0.16727055573943145 0.0
O O 0.5591992735377345 0.13953429075477478 -0.27902422285011325 0.0
O O 0.6633266820313435 0.27112336454289676 -0.10986469347309391 0.0
N N 0.756553326149792 0.45397970555622064 0.19053515190575357 0.0
N N 0.686267798033353 0.6360117395005982 0.21368111104525517 0.0
C C 0.6933725215691654 0.41151350331220665 0.03317697249528182 0.0
H H 0.7258425215691654 0.3445935033122067 0.023636972495281825 0.0
C C 0.6203384701526774 0.3513680243162062 -0.1137517054060808 0.0
C C 0.6384049260908798 0.4510539347431647 -0.015445290771948913 0.0
C C 0.600699709174192 0.610114508144066 0.06286545328846319 0.0
H H 0.5692597091741921 0.680734508144066 0.07172545328846316 0.0
C C 0.7061501222908405 0.46024670341536444 0.11222060933292831 0.0
C C 0.7520432480650543 0.5570232437182625 0.24828490926048136 0.0
C C 0.6555754381716123 0.5669996380939336 0.12896475653766643 0.0
C C 0.5924334179482997 0.5332260311435957 -0.002149603736925743 0.0
H H 0.5501034179482996 0.5542460311435956 -0.047489603736925734 0.0
O O 0.8366976846365324 0.4397911414317164 0.36171766170227854 0.0
H H 0.8118476846365325 0.3807811414317163 0.37767766170227857 0.0
C C 0.792592849989165 0.5796828766850375 0.3366282396141165 0.0
H H 0.7688328499891651 0.6219718766850374 0.3747682396141164 0.0
C C 0.8721793406585113 0.6767779733232739 0.3353447990165859 0.0
H H 0.06696526301045534 0.11104920734741532 0.06392312623787562 0.0
H H 0.06696526301045534 0.11104920734741532 0.06392312623787562 0.0
H H 0.8566993406585114 0.7721599733232739 0.30673479901658607 0.0
H H 0.5601692735377345 0.10785429075477478 -0.31246422285011327 0.0
