_cell_length_a 20.4364
_cell_length_b 9.005017
_cell_length_c 16.6723
_cell_angle_alpha 90.0
_cell_angle_beta 110.2303
_cell_angle_gamma 90.0
_symmetry_space_group_name_H-M         'P 1'
_symmetry_Int_Tables_number            1
loop_
_symmetry_equiv_pos_as_xyz
   'x, y, z'
                         
loop_
_atom_site_label
_atom_site_type_symbol
_atom_site_fract_x 
_atom_site_fract_y
_atom_site_fract_z
_atom_site_charge
Zn Zn 0.1634120181065577 0.3129976830828538 0.26922368241821715 0.0
Zn Zn -0.00689418621246855 0.24486046637327838 0.24832997232214407 0.0
O O 0.05421153366827686 0.09739911013853536 0.3390169369865821 0.0
O O 0.06116808375868633 0.3568281184130225 0.22121381748426333 0.0
O O 0.158859256460988 0.22460845066898602 0.38462700559055685 0.0
N N 0.27080451377317255 0.04305196383939383 0.695400517825029 0.0
N N 0.19800118338597403 -0.13609728944441396 0.7210186520796096 0.0
C C 0.19304154685225375 0.08947617755497134 0.5350719547511659 0.0
H H 0.22551154685225377 0.15639617755497132 0.5255319547511659 0.0
C C 0.10694270244751886 0.14671929390607027 0.38743007586276007 0.0
C C 0.12737490252442774 0.055406660909813214 0.4797260358317149 0.0
C C 0.10171266292605625 -0.09888092021966853 0.5642618179026169 0.0
H H 0.07027266292605627 -0.16950092021966853 0.573121817902617 0.0
C C 0.2073172019579995 0.023789808566645226 0.6255005673020979 0.0
C C 0.2540754051857849 -0.04569414833391055 0.754028515563026 0.0
C C 0.16478332803281318 -0.06998003339646534 0.6330930468683574 0.0
C C 0.09227266671065103 -0.05177567943251113 0.4868998782389315 0.0
H H 0.049942666710651035 -0.07279567943251113 0.4415598782389315 0.0
O O 0.3420553651752344 0.043460371876037504 0.8745564017280898 0.0
H H 0.31720536517523434 0.1024703718760375 0.8905164017280898 0.0
C C 0.30514194838260816 -0.09478121567860504 0.8382968207878594 0.0
H H 0.28138194838260816 -0.13707021567860503 0.8764368207878593 0.0
C C 0.3661091605827185 -0.16342961007897427 0.8401820825389813 0.0
H H 0.06696526301045534 0.11104920734741532 0.06392312623787562 0.0
H H 0.06696526301045534 0.11104920734741532 0.06392312623787562 0.0
H H 0.3506291605827185 -0.2588116100789743 0.8115720825389814 0.0
H H 0.06213808375868634 0.38850811841302246 0.18777381748426336 0.0
Zn Zn -0.15843665591512726 0.3071906651728543 0.24051678920959516 0.0
O O -0.05309965131994181 0.12014658335397448 0.162223355132553 0.0
O O -0.061397878098495964 0.3543737046041506 0.2866805886336751 0.0
O O -0.150944234155236 0.23243198676531374 0.11796515435453273 0.0
N N -0.2645645817683591 0.029521604563570652 -0.1935447403313352 0.0
N N -0.18873853245566252 -0.11871312393100512 -0.21815570120320837 0.0
C C -0.19033703254728723 0.08206117994827024 -0.04762000282877897 0.0
H H -0.22280703254728726 0.1489811799482702 -0.03808000282877898 0.0
C C -0.11122333487612637 0.14386507100793797 0.10820396066721998 0.0
C C -0.13586351992278323 0.0616439378234437 0.02990344217016795 0.0
C C -0.09867881264412166 -0.11001281649700194 -0.06960475247567385 0.0
H H -0.06723881264412165 -0.18063281649700194 -0.07846475247567383 0.0
C C -0.20583003873432393 0.02842565187223456 -0.11073006991460525 0.0
C C -0.2507019471873124 -0.03876433877967536 -0.2432485024320162 0.0
C C -0.16184682359191144 -0.09435493714487835 -0.12767097828563043 0.0
C C -0.07965495449889709 -0.05558795113884639 0.014443176558804926 0.0
H H -0.03732495449889709 -0.07660795113884637 0.05978317655880492 0.0
O O -0.34109057276922417 0.03896402241147101 -0.3664000368763683 0.0
H H -0.3162405727692241 0.097974022411471 -0.38236003687636827 0.0
C C -0.30485572052495435 -0.09097421330571033 -0.3407351513773688 0.0
H H -0.2810957205249543 -0.1332632133057103 -0.37887515137736877 0.0
C C -0.3668288528952117 -0.1746823784154417 -0.34366863500637246 0.0
H H 0.06696526301045534 0.11104920734741532 0.06392312623787562 0.0
H H 0.06696526301045534 0.11104920734741532 0.06392312623787562 0.0
H H -0.35134885289521167 -0.27006437841544173 -0.31505863500637254 0.0
H H -0.062367878098495956 0.38605370460415056 0.32012058863367515 0.0
Zn Zn 0.6641462355296818 0.811802510903121 0.2680881049348723 0.0
Zn Zn 0.5006166279216218 0.7619618148417199 0.25666342886611937 0.0
O O 0.5530650503525173 0.6209982292036748 0.3323552479850526 0.0
O O 0.5609080367945719 0.8556474449065822 0.21089788274875618 0.0
O O 0.6590147418600999 0.7383095408680618 0.382519561894604 0.0
N N 0.7698072874457397 0.5451828769535468 0.6972746312146864 0.0
N N 0.691370232242737 0.3824778778205941 0.7202468320390369 0.0
C C 0.69125673154523 0.6026882819206942 0.5440736586000682 0.0
H H 0.72372673154523 0.6696082819206943 0.5345336586000683 0.0
C C 0.6113648044841479 0.6514229894226881 0.3867915902804539 0.0
C C 0.6345977570231223 0.57345707695406 0.4771278855671448 0.0
C C 0.6029783144717281 0.38677287047411946 0.5696830888871187 0.0
H H 0.5715383144717281 0.3161528704741194 0.5785430888871186 0.0
C C 0.7091390331178382 0.5328104643343515 0.6194993235882286 0.0
C C 0.7531212405982268 0.4354838537966851 0.7529146492411349 0.0
C C 0.6637698031687942 0.4074777161315187 0.631129941585273 0.0
C C 0.5875974164827281 0.4540646695812432 0.48962085729271443 0.0
H H 0.5452674164827281 0.4330446695812431 0.44428085729271444 0.0
O O 0.8409836543861199 0.5586531100497705 0.8727896748635141 0.0
H H 0.81613365438612 0.6176631100497706 0.8887496748635142 0.0
C C 0.7938364668731516 0.41345594996288965 0.8406638156055402 0.0
H H 0.7700764668731517 0.3711669499628896 0.8788038156055401 0.0
C C 0.8666431849961311 0.30832243846183893 0.8431891195538571 0.0
H H 0.06696526301045534 0.11104920734741532 0.06392312623787562 0.0
H H 0.06696526301045534 0.11104920734741532 0.06392312623787562 0.0
H H 0.8511631849961312 0.21294043846183894 0.8145791195538572 0.0
H H 0.5618780367945719 0.8873274449065822 0.17745788274875618 0.0
Zn Zn 0.34536259082812076 0.8126998877183536 0.23784181441987629 0.0
O O 0.4415957601303042 0.620463775764805 0.16183404786338745 0.0
O O 0.4374673072644851 0.8692921134861012 0.2752464219367563 0.0
O O 0.34204142222230793 0.7357162469525003 0.12360777455787733 0.0
N N 0.23091806168378612 0.5384630532323164 -0.1997301713671985 0.0
N N 0.30927630886468843 0.3773095055759939 -0.21909894261605012 0.0
C C 0.30814662463997455 0.5930190526287686 -0.04510425248162299 0.0
H H 0.2756766246399745 0.6599390526287687 -0.035564252481622996 0.0
C C 0.38480861353634094 0.6286050932013009 0.10275194668251088 0.0
C C 0.36854937346704686 0.556252598026086 0.02631735753344596 0.0
C C 0.3998538910468497 0.40148651528388285 -0.06883040227017394 0.0
H H 0.4312938910468496 0.3308665152838828 -0.07769040227017392 0.0
C C 0.28844932760301567 0.5416241465630839 -0.11643981731589312 0.0
C C 0.2577530548354149 0.4366744695468817 -0.2471752386024775 0.0
C C 0.3331960130657182 0.42492584432958513 -0.1250640076731061 0.0
C C 0.4154971139498479 0.44638759863635746 0.01445126515749004 0.0
H H 0.45782711394984793 0.4253675986363575 0.05979126515749003 0.0
O O 0.16124830473140195 0.5611856331167884 -0.3776655697579185 0.0
H H 0.18609830473140201 0.6201956331167884 -0.39362556975791846 0.0
C C 0.19951452555214588 0.4198963491841812 -0.3470757816339763 0.0
H H 0.2232745255521459 0.37760734918418115 -0.38521578163397624 0.0
C C 0.12623346815971304 0.32950423809017243 -0.34450206391301624 0.0
H H 0.06696526301045534 0.11104920734741532 0.06392312623787562 0.0
H H 0.06696526301045534 0.11104920734741532 0.06392312623787562 0.0
H H 0.14171346815971306 0.23412223809017244 -0.3158920639130164 0.0
H H 0.43649730726448516 0.9009721134861013 0.30868642193675633 0.0
Zn Zn -0.16316318227156 -0.2921096108675466 -0.26490183976197046 0.0
Zn Zn -0.0017661843421454514 -0.252814988921454 -0.2567102644001903 0.0
O O -0.051614296534517594 -0.11108699069408855 -0.3345329587806489 0.0
O O -0.06699105604027367 -0.3778349409333935 -0.2135137628357333 0.0
O O -0.15330879614941265 -0.2262197896111859 -0.3752673744822767 0.0
N N -0.26294429603934844 -0.03919889079722623 -0.6909646734079068 0.0
N N -0.19267510661053489 0.1427625029886866 -0.7190631143370343 0.0
C C -0.20044827921599115 -0.08898954781150134 -0.5380901026311834 0.0
H H -0.2329182792159912 -0.15590954781150132 -0.5285501026311835 0.0
C C -0.12107230413105366 -0.1452575483353753 -0.3935325608826155 0.0
C C -0.1351337519953496 -0.058193469423298415 -0.48177741320958517 0.0
C C -0.10153358979225294 0.12061479814187331 -0.5602469165758084 0.0
H H -0.07009358979225293 0.1912347981418733 -0.5691069165758084 0.0
C C -0.21604643006566449 -0.007423046885793722 -0.6242373257708438 0.0
C C -0.250441664660602 0.06450009799586817 -0.7420566895380292 0.0
C C -0.15724870899913385 0.08625253838592226 -0.6310725708434606 0.0
C C -0.07960783394091714 0.047616028427879924 -0.4863392587542983 0.0
H H -0.03727783394091714 0.06863602842787991 -0.4409992587542983 0.0
O O -0.32980352736776974 -0.05669852044340483 -0.8680196589122021 0.0
H H -0.30495352736776976 -0.11570852044340484 -0.8839796589122022 0.0
C C -0.29757830557934245 0.09879275413976892 -0.8422828964475495 0.0
H H -0.27381830557934245 0.14108175413976892 -0.8804228964475495 0.0
C C -0.36362961479312034 0.16535066413152927 -0.8453963573485919 0.0
H H 0.06696526301045534 0.11104920734741532 0.06392312623787562 0.0
H H 0.06696526301045534 0.11104920734741532 0.06392312623787562 0.0
H H -0.3481496147931204 0.2607326641315292 -0.8167863573485918 0.0
H H -0.06796105604027367 -0.4095149409333935 -0.18007376283573331 0.0
Zn Zn 0.16523662482175094 -0.3143251845154152 -0.23244200037655832 0.0
O O 0.059183327880326826 -0.11055207326726052 -0.1683879985010283 0.0
O O 0.0645940215314725 -0.3729540659609041 -0.27390311981316323 0.0
O O 0.1611808624040963 -0.2213768198813318 -0.11323920291766776 0.0
N N 0.26290009755014004 -0.023889024265876895 0.19308781421730647 0.0
N N 0.1944975576491838 0.1279661381351359 0.2113747264336234 0.0
C C 0.19440037556316753 -0.08190652760782724 0.05032739207062455 0.0
H H 0.22687037556316755 -0.14882652760782722 0.04078739207062456 0.0
C C 0.12121217414628059 -0.13046909784567887 -0.10411328199052539 0.0
C C 0.13752486641419945 -0.04990948648502752 -0.016372911380803996 0.0
C C 0.097288804231848 0.10794321449907296 0.06472292630092541 0.0
H H 0.065848804231848 0.17856321449907295 0.0735829263009254 0.0
C C 0.20858800177664333 -0.020556935509463966 0.12699537951263004 0.0
C C 0.24548099974231424 0.05539293442709393 0.2547384658903884 0.0
C C 0.15759029824667167 0.08867864476547516 0.12697410422541366 0.0
C C 0.08323223838250814 0.05695176003884277 -0.012647547670593987 0.0
H H 0.04090223838250813 0.07797176003884278 -0.057987547670593984 0.0
O O 0.3445734093599331 -0.04504107421546337 0.37251770088501085 0.0
H H 0.3197234093599331 -0.10405107421546338 0.3884777008850108 0.0
C C 0.302695558818538 0.0822488137904152 0.3347125210556148 0.0
H H 0.278935558818538 0.1245378137904152 0.3728525210556147 0.0
C C 0.3675763912534418 0.17799925033121905 0.3464697976812421 0.0
H H 0.06696526301045534 0.11104920734741532 0.06392312623787562 0.0
H H 0.06696526301045534 0.11104920734741532 0.06392312623787562 0.0
H H 0.3520963912534418 0.2733812503312191 0.31785979768124223 0.0
H H 0.06556402153147249 -0.40463406596090407 -0.30734311981316326 0.0
Zn Zn 0.34313552606185804 0.1865382287546075 -0.26427744308354834 0.0
Zn Zn 0.5007157770852506 0.25485093336505177 -0.25354102723064026 0.0
O O 0.4461224045850892 0.40236438563102456 -0.336449766290307 0.0
O O 0.43099347069120497 0.14132421103719806 -0.21969159986710982 0.0
O O 0.3422607645239173 0.279963209502119 -0.3738099798575726 0.0
N N 0.22789525250714082 0.4511378711522925 -0.6979881008907287 0.0
N N 0.3047794768598868 0.6316108374255549 -0.718433537740471 0.0
C C 0.2976202920935766 0.40213156303778097 -0.5454908031983139 0.0
H H 0.2651502920935765 0.33521156303778094 -0.535950803198314 0.0
C C 0.3844422640681121 0.3484982194529101 -0.3960889674388916 0.0
C C 0.3659365116893153 0.43688692304815535 -0.4701878275907793 0.0
C C 0.4001968954937133 0.6064739750321628 -0.5624423428466555 0.0
H H 0.43163689549371315 0.677093975032163 -0.5713023428466554 0.0
C C 0.29727973229461985 0.47297371108541236 -0.6170093067020509 0.0
C C 0.25422774965223033 0.5594756471147834 -0.7519029103996664 0.0
C C 0.3390946881576211 0.5671296283736609 -0.6340991563753374 0.0
C C 0.40895437306034016 0.5257673553845211 -0.4903714697666668 0.0
H H 0.45128437306034025 0.5467873553845212 -0.44503146976666685 0.0
O O 0.16626782661916795 0.44304731823832105 -0.8645390388014347 0.0
H H 0.19111782661916796 0.384037318238321 -0.8804990388014347 0.0
C C 0.20298175370058336 0.5886838414424848 -0.8309683115339997 0.0
H H 0.2267417537005834 0.6309728414424848 -0.8691083115339997 0.0
C C 0.1353642869972901 0.6925686593040126 -0.8396219056801513 0.0
H H 0.06696526301045534 0.11104920734741532 0.06392312623787562 0.0
H H 0.06696526301045534 0.11104920734741532 0.06392312623787562 0.0
H H 0.15084428699729008 0.7879506593040126 -0.8110119056801514 0.0
H H 0.430023470691205 0.10964421103719806 -0.18625159986710985 0.0
Zn Zn 0.6661414684497633 0.1992449160834214 -0.23224787923005624 0.0
O O 0.5580891110059769 0.3932372922508865 -0.16593449567097715 0.0
O O 0.5664679860828634 0.13713191080648907 -0.28335313114852284 0.0
O O 0.6572838497891484 0.28998322947795313 -0.11895440814915324 0.0
N N 0.7627220940268011 0.44502558380997453 0.20067368762020033 0.0
N N 0.6918357375520483 0.6410491777864661 0.21591441950152657 0.0
C C 0.6925973064192147 0.42067464052240366 0.034972380223775495 0.0
H H 0.7250673064192148 0.3537546405224037 0.0254323802237755 0.0
C C 0.6176977186118252 0.37831212661062824 -0.10940534695328198 0.0
C C 0.6266775981847782 0.4474120035911332 -0.026392386572677087 0.0
C C 0.5978539535599336 0.6069205689344078 0.059214479954994 0.0
H H 0.5664139535599337 0.6775405689344078 0.06807447995499398 0.0
C C 0.706450329374291 0.45788331061929044 0.11813926181878372 0.0
C C 0.7544132676194941 0.5491185949125336 0.2501964185954713 0.0
C C 0.6626275398147699 0.5798602592739618 0.13931787177809196 0.0
C C 0.5827869132275473 0.5253451120853414 -0.006613690362747436 0.0
H H 0.5404569132275473 0.5463651120853414 -0.051953690362747426 0.0
O O 0.8343112573541512 0.4351509869557576 0.37109614775809113 0.0
H H 0.8094612573541512 0.37614098695575754 0.3870561477580911 0.0
C C 0.801621371168961 0.5944584023150046 0.33524849175087273 0.0
H H 0.7778613711689611 0.6367474023150045 0.3733884917508727 0.0
C C 0.8700892574040319 0.683079529519942 0.33645876633995736 0.0
H H 0.06696526301045534 0.11104920734741532 0.06392312623787562 0.0
H H 0.06696526301045534 0.11104920734741532 0.06392312623787562 0.0
H H 0.8546092574040319 0.7784615295199421 0.30784876633995745 0.0
H H 0.5674379860828636 0.10545191080648907 -0.31679313114852287 0.0
