_cell_length_a 20.4364
_cell_length_b 9.005017
_cell_length_c 16.6723
_cell_angle_alpha 90.0
_cell_angle_beta 110.2303
_cell_angle_gamma 90.0
_symmetry_space_group_name_H-M         'P 1'
_symmetry_Int_Tables_number            1
loop_
_symmetry_equiv_pos_as_xyz
   'x, y, z'
                         
loop_
_atom_site_label
_atom_site_type_symbol
_atom_site_fract_x 
_atom_site_fract_y
_atom_site_fract_z
_atom_site_charge
Zn Zn 0.1626463900821732 0.3147038721936002 0.2705226524675317 0.0
Zn Zn -0.00476032534422078 0.2348168138417414 0.24776104688378067 0.0
O O 0.0544813819917299 0.12878708713479234 0.33390169760548527 0.0
O O 0.07067002797757416 0.3673550945644777 0.22246262716130047 0.0
O O 0.15354589401530383 0.21040533772447315 0.3756805918233444 0.0
N N 0.26937069782598194 0.04293762889560124 0.6932726322515711 0.0
N N 0.1936820573952838 -0.1418098739366475 0.7156956350256809 0.0
C C 0.19484392703965447 0.09817544847333866 0.5396659598290257 0.0
H H 0.2273139270396545 0.16509544847333862 0.5301259598290257 0.0
C C 0.1126601040447805 0.12793464383170927 0.388372666319965 0.0
C C 0.13053716382761543 0.06536252812592602 0.48160938246979484 0.0
C C 0.10273009573969895 -0.12794052005475176 0.5648784926444734 0.0
H H 0.07129009573969892 -0.19856052005475175 0.5737384926444733 0.0
C C 0.21611272267788803 0.0157840540681245 0.6172088580697191 0.0
C C 0.24698922471503482 -0.03710112730148842 0.7474063213413079 0.0
C C 0.15786256182138017 -0.06579602463492229 0.6377306555489561 0.0
C C 0.09069562600943479 -0.03942908150082452 0.4965639031258512 0.0
H H 0.0483656260094348 -0.06044908150082451 0.4512239031258512 0.0
O O 0.33097642591706045 0.051113353308557374 0.8648237186078933 0.0
H H 0.3061264259170604 0.11012335330855738 0.8807837186078934 0.0
C C 0.3008450938440821 -0.07544736976323876 0.8355674804462925 0.0
H H 0.2770850938440821 -0.11773636976323879 0.8737074804462924 0.0
C C 0.36226566269191773 -0.1586566088721965 0.8380631607338714 0.0
H H 0.06696526301045534 0.11104920734741532 0.06392312623787562 0.0
H H 0.06696526301045534 0.11104920734741532 0.06392312623787562 0.0
H H 0.34678566269191774 -0.2540386088721965 0.8094531607338715 0.0
H H 0.07164002797757416 0.3990350945644776 0.18902262716130047 0.0
Zn Zn -0.1659681289912928 0.29829112906240335 0.23748661800542545 0.0
O O -0.062168871446448226 0.10151892246829985 0.1629989796482811 0.0
O O -0.060702654872441815 0.346601946491232 0.2741434795558852 0.0
O O -0.16199423331548313 0.22264976428710045 0.1123842667787694 0.0
N N -0.2612312752356354 0.03687381469221621 -0.19462473227422464 0.0
N N -0.19289625846511757 -0.14860127833815426 -0.21752748869661298 0.0
C C -0.2002177260883407 0.0777236169172454 -0.04069216116394857 0.0
H H -0.23268772608834076 0.1446436169172454 -0.031152161163948575 0.0
C C -0.11509805059538498 0.13223762417573062 0.10167246453456638 0.0
C C -0.1307161987361402 0.05013732995948711 0.01606732649166509 0.0
C C -0.10874432582916453 -0.10807133654457693 -0.07038649935623832 0.0
H H -0.07730432582916452 -0.17869133654457692 -0.0792464993562383 0.0
C C -0.2029797562785161 0.02184387586139414 -0.11727563502880466 0.0
C C -0.25593870185653195 -0.03754280043545741 -0.2571007480157654 0.0
C C -0.15691911346256499 -0.07534739588452354 -0.13739353709155452 0.0
C C -0.08217929561529524 -0.05616933398662113 0.01161317918729641 0.0
H H -0.039849295615295245 -0.07718933398662112 0.0569531791872964 0.0
O O -0.33970563647530916 0.059898250721791405 -0.37481154815380696 0.0
H H -0.3148556364753091 0.1189082507217914 -0.390771548153807 0.0
C C -0.2987568103569365 -0.07138541060631347 -0.3428823142697534 0.0
H H -0.27499681035693646 -0.11367441060631346 -0.38102231426975336 0.0
C C -0.3674543461698426 -0.17901559185173602 -0.34224358372216057 0.0
H H 0.06696526301045534 0.11104920734741532 0.06392312623787562 0.0
H H 0.06696526301045534 0.11104920734741532 0.06392312623787562 0.0
H H -0.35197434616984263 -0.274397591851736 -0.31363358372216066 0.0
H H -0.06167265487244178 0.3782819464912319 0.3075834795558853 0.0
Zn Zn 0.6589026152273312 0.813564431203045 0.27641130698231703 0.0
Zn Zn 0.49406419841706306 0.7493817981597899 0.24196649753645622 0.0
O O 0.5580150970808768 0.61596169046249 0.3436124257501308 0.0
O O 0.5703312408056199 0.8530529705112966 0.21314375372394 0.0
O O 0.6645412567456846 0.7135462786175821 0.3863974210505472 0.0
N N 0.7676377366196979 0.5423302594066236 0.6898142356279421 0.0
N N 0.6854530805032939 0.3734476437425315 0.718523586326268 0.0
C C 0.6993929069230974 0.5869922356807789 0.5453464308968881 0.0
H H 0.7318629069230976 0.6539122356807789 0.5358064308968882 0.0
C C 0.6200018417236789 0.6309624109743058 0.3977302806790773 0.0
C C 0.6288017424622359 0.5734936513841999 0.47481958457682144 0.0
C C 0.6028315756726488 0.37436996671900613 0.567951983802775 0.0
H H 0.5713915756726489 0.3037499667190061 0.5768119838027749 0.0
C C 0.7127186538935262 0.5261690119850393 0.6134374690784645 0.0
C C 0.7583893853786129 0.45011731722389386 0.7540692775395147 0.0
C C 0.6592901712333692 0.41443001091543424 0.6329499059329385 0.0
C C 0.5884133669375868 0.46811750105515526 0.48570083011907317 0.0
H H 0.5460833669375869 0.4470975010551552 0.4403608301190732 0.0
O O 0.8438882209190942 0.5338339465422042 0.8738798873962141 0.0
H H 0.8190382209190943 0.5928439465422042 0.8898398873962141 0.0
C C 0.8055831296634516 0.40979109255952706 0.8382918178014583 0.0
H H 0.7818231296634517 0.36750209255952704 0.8764318178014583 0.0
C C 0.8725399483804911 0.32509675154892187 0.8342349835436528 0.0
H H 0.06696526301045534 0.11104920734741532 0.06392312623787562 0.0
H H 0.06696526301045534 0.11104920734741532 0.06392312623787562 0.0
H H 0.8570599483804913 0.22971475154892187 0.8056249835436529 0.0
H H 0.57130124080562 0.8847329705112967 0.17970375372394 0.0
Zn Zn 0.34348189407702345 0.8004684317989044 0.23023824932857614 0.0
O O 0.4415756727975936 0.6207978772196604 0.15548870772274007 0.0
O O 0.43958420594107506 0.8539339327135556 0.2882963180952147 0.0
O O 0.3337381479075325 0.7237493635758074 0.1147471287057098 0.0
N N 0.23983433175818064 0.5479167486207183 -0.1900341426648765 0.0
N N 0.3061802473571868 0.3650064932502867 -0.21707071859439608 0.0
C C 0.29727832317090147 0.6086971272564985 -0.0442034565417054 0.0
H H 0.2648083231709016 0.6756171272564986 -0.034663456541705405 0.0
C C 0.3846815686897393 0.6433329175560284 0.10456979156064904 0.0
C C 0.3751024970195339 0.557680913691109 0.019955305232340858 0.0
C C 0.401052346306693 0.3791752808466346 -0.06335744772581445 0.0
H H 0.4324923463066929 0.3085552808466346 -0.07221744772581443 0.0
C C 0.2854692482080309 0.513332212787598 -0.12487779560539364 0.0
C C 0.25466424318314607 0.4281988667905945 -0.2502569700502506 0.0
C C 0.33833245647835936 0.4175480768928762 -0.12789959030333325 0.0
C C 0.41249164386576903 0.4678436794948186 0.009735291675636496 0.0
H H 0.454821643865769 0.44682367949481866 0.05507529167563648 0.0
O O 0.16456866904884185 0.5353841452762118 -0.37507540049223637 0.0
H H 0.18941866904884186 0.5943941452762118 -0.39103540049223634 0.0
C C 0.19680318456852183 0.40959689061490556 -0.34632439050714997 0.0
H H 0.22056318456852186 0.36730789061490554 -0.3844643905071499 0.0
C C 0.1374434680212575 0.32106020679003067 -0.3396407587068597 0.0
H H 0.06696526301045534 0.11104920734741532 0.06392312623787562 0.0
H H 0.06696526301045534 0.11104920734741532 0.06392312623787562 0.0
H H 0.1529234680212575 0.22567820679003064 -0.3110307587068598 0.0
H H 0.43861420594107503 0.8856139327135557 0.32173631809521475 0.0
Zn Zn -0.16879323186108902 -0.31504750644781193 -0.26750921777554215 0.0
Zn Zn -0.00017151283960428534 -0.2665397175351745 -0.25235229378507784 0.0
O O -0.057226318088392195 -0.09570243247732818 -0.34193457308639624 0.0
O O -0.060037612551515684 -0.3586473568249132 -0.21305739702270776 0.0
O O -0.1611239804566308 -0.24779035679590347 -0.38007825634247216 0.0
N N -0.2575955919674137 -0.03706290463299203 -0.6966795934887205 0.0
N N -0.19468197546256422 0.11877761510245734 -0.7125824182567242 0.0
C C -0.19622421998876086 -0.0984430121828078 -0.5340145937341026 0.0
H H -0.22869421998876088 -0.16536301218280777 -0.5244745937341028 0.0
C C -0.10809047066804538 -0.14351574137222733 -0.3887751502319919 0.0
C C -0.13228056633506072 -0.06469274903102643 -0.4703325147434438 0.0
C C -0.0930428114475157 0.10804728159741926 -0.5702824339110746 0.0
H H -0.06160281144751568 0.17866728159741926 -0.5791424339110746 0.0
C C -0.20641724767547695 -0.017963313753991038 -0.6125354909861592 0.0
C C -0.2563515491894812 0.0585847336577251 -0.7514321070137648 0.0
C C -0.16434528402077278 0.09177448508819896 -0.6387889883506304 0.0
C C -0.08602678213391672 0.027801588600878592 -0.495361111652891 0.0
H H -0.043696782133916735 0.048821588600878575 -0.450021111652891 0.0
O O -0.33754274441843596 -0.036956454372915476 -0.8777893774137404 0.0
H H -0.3126927444184359 -0.09596645437291547 -0.8937493774137405 0.0
C C -0.3066071297523359 0.07851120633513159 -0.841627733616226 0.0
H H -0.2828471297523359 0.12080020633513158 -0.879767733616226 0.0
C C -0.3666579445429297 0.17467120462259755 -0.8389574955478465 0.0
H H 0.06696526301045534 0.11104920734741532 0.06392312623787562 0.0
H H 0.06696526301045534 0.11104920734741532 0.06392312623787562 0.0
H H -0.3511779445429298 0.2700532046225975 -0.8103474955478466 0.0
H H -0.06100761255151569 -0.39032735682491326 -0.17961739702270776 0.0
Zn Zn 0.16842316806255594 -0.31416899046508767 -0.23656057254383217 0.0
O O 0.060001884607019655 -0.10113707521119306 -0.1565773317315546 0.0
O O 0.06373175630073909 -0.35679449762126714 -0.2856993002529544 0.0
O O 0.15177543504832433 -0.22915136227437827 -0.12455443831138584 0.0
N N 0.2721281882130964 -0.057656741174697275 0.19872793915213785 0.0
N N 0.1853962738616136 0.12497007877608295 0.2151896426706973 0.0
C C 0.1995869940204429 -0.09215428151412326 0.04052378691617454 0.0
H H 0.23205699402044289 -0.15907428151412326 0.030983786916174545 0.0
C C 0.10699394114469181 -0.13764518848312066 -0.1056107505867115 0.0
C C 0.126780719059903 -0.05785859002937343 -0.02515541677750669 0.0
C C 0.10652935120883614 0.09954455064658435 0.061193220977435646 0.0
H H 0.07508935120883613 0.17016455064658434 0.07005322097743563 0.0
C C 0.21397290456319376 -0.0193975277841665 0.12432386406716167 0.0
C C 0.2436847564660496 0.048000818480266876 0.25363092648681446 0.0
C C 0.16857758013014754 0.06578207128505532 0.12817773332981305 0.0
C C 0.08384184483265451 0.03829529400551426 -0.010646216181211365 0.0
H H 0.04151184483265451 0.059315294005514246 -0.05598621618121136 0.0
O O 0.33759197229870075 -0.03643941265415436 0.37306997451429214 0.0
H H 0.3127419722987007 -0.09544941265415437 0.3890299745142921 0.0
C C 0.3024329964697074 0.09159386662028803 0.3393164656528402 0.0
H H 0.2786729964697074 0.133882866620288 0.37745646565284013 0.0
C C 0.370972511357863 0.1951055537173999 0.3394531223350516 0.0
H H 0.06696526301045534 0.11104920734741532 0.06392312623787562 0.0
H H 0.06696526301045534 0.11104920734741532 0.06392312623787562 0.0
H H 0.35549251135786303 0.2904875537173999 0.31084312233505174 0.0
H H 0.06470175630073906 -0.3884744976212671 -0.3191393002529545 0.0
Zn Zn 0.34689792629244226 0.19580914745420933 -0.26510700613795757 0.0
Zn Zn 0.49731320787390626 0.2647661264028184 -0.25453009501864576 0.0
O O 0.43977422866738236 0.4009517542652948 -0.33317816694771235 0.0
O O 0.4377230664994394 0.13260997986526235 -0.21816887901844567 0.0
O O 0.3382133183830827 0.26202703488926055 -0.37649609121028976 0.0
N N 0.2300911802838963 0.47109512577479995 -0.6897409061002019 0.0
N N 0.3047508929669783 0.6322374688161789 -0.7206307010066632 0.0
C C 0.30134649570053296 0.40523132772827186 -0.5424552001920112 0.0
H H 0.26887649570053285 0.3383113277282719 -0.5329152001920113 0.0
C C 0.38228562376740927 0.35748992095003906 -0.3989943921490822 0.0
C C 0.3706593752729106 0.4518047777980398 -0.48283253925663455 0.0
C C 0.39503471647662947 0.6166645435656506 -0.5744798702803354 0.0
H H 0.4264747164766293 0.6872845435656507 -0.5833398702803353 0.0
C C 0.29149404154958963 0.45822428082394967 -0.6193007350961652 0.0
C C 0.2520604734624422 0.5331655852637646 -0.7496479582670725 0.0
C C 0.3348302321370633 0.584124553644076 -0.6363842432188364 0.0
C C 0.4138866589475717 0.5379140905430403 -0.4831287761683442 0.0
H H 0.45621665894757163 0.5589340905430402 -0.4377887761683442 0.0
O O 0.1725380566817093 0.4476716849748103 -0.8683404130989445 0.0
H H 0.1973880566817093 0.3886616849748102 -0.8843004130989446 0.0
C C 0.2023751325421638 0.583554622500643 -0.8422128407801263 0.0
H H 0.22613513254216383 0.6258436225006431 -0.8803528407801262 0.0
C C 0.13045256196186525 0.6872833945505484 -0.8331753682164368 0.0
H H 0.06696526301045534 0.11104920734741532 0.06392312623787562 0.0
H H 0.06696526301045534 0.11104920734741532 0.06392312623787562 0.0
H H 0.1459325619618653 0.7826653945505486 -0.8045653682164369 0.0
H H 0.43675306649943946 0.10092997986526234 -0.1847288790184457 0.0
Zn Zn 0.6661457012289523 0.1831189618448863 -0.23529387779391533 0.0
O O 0.5494428073522486 0.3871722243746522 -0.16993120836090025 0.0
O O 0.5585454677150472 0.12646366488132146 -0.2780200084277158 0.0
O O 0.6605026420199107 0.2801621397055616 -0.12549628381810615 0.0
N N 0.7716591420184495 0.4479895286444042 0.19538749811273048 0.0
N N 0.6855328645166734 0.6199045457135569 0.21116802301837911 0.0
C C 0.698833918641951 0.38828157930047885 0.04560461675339236 0.0
H H 0.7313039186419509 0.3213615793004789 0.03606461675339237 0.0
C C 0.6213746790450985 0.35630628596427627 -0.1053296379820397 0.0
C C 0.6258170937601633 0.45555252152390785 -0.024473971666944434 0.0
C C 0.6058232981289957 0.6119881482683446 0.062351220536008174 0.0
H H 0.5743832981289956 0.6826081482683446 0.07121122053600816 0.0
C C 0.7182631400769285 0.4682827819620462 0.12336881202984751 0.0
C C 0.7487379612765215 0.5452988839885046 0.24216530572231917 0.0
C C 0.668120213867989 0.560048272595484 0.13422750706670636 0.0
C C 0.5892398440481912 0.52799353349676 -0.011681582027833148 0.0
H H 0.5469098440481912 0.54901353349676 -0.05702158202783314 0.0
O O 0.8330311347601306 0.45160669062268094 0.3733672991702717 0.0
H H 0.8081811347601306 0.3925966906226809 0.3893272991702717 0.0
C C 0.8052526705400559 0.5966783186937324 0.3430903647554142 0.0
H H 0.7814926705400559 0.6389673186937324 0.38123036475541416 0.0
C C 0.8702743326012164 0.6709837176276939 0.3413386657123969 0.0
H H 0.06696526301045534 0.11104920734741532 0.06392312623787562 0.0
H H 0.06696526301045534 0.11104920734741532 0.06392312623787562 0.0
H H 0.8547943326012165 0.766365717627694 0.31272866571239705 0.0
H H 0.5595154677150472 0.09478366488132144 -0.3114600084277159 0.0
