_cell_length_a 20.4364
_cell_length_b 9.005017
_cell_length_c 16.6723
_cell_angle_alpha 90.0
_cell_angle_beta 110.2303
_cell_angle_gamma 90.0
_symmetry_space_group_name_H-M         'P 1'
_symmetry_Int_Tables_number            1
loop_
_symmetry_equiv_pos_as_xyz
   'x, y, z'
                         
loop_
_atom_site_label
_atom_site_type_symbol
_atom_site_fract_x 
_atom_site_fract_y
_atom_site_fract_z
_atom_site_charge
Zn Zn 0.15910223472364393 0.3025341373047349 0.26300208185368157 0.0
Zn Zn -0.004269379710262098 0.24857044416862512 0.25630726444502777 0.0
O O 0.05147603509869707 0.10518870816094335 0.33387288285306577 0.0
O O 0.06161817025829226 0.36955448070989677 0.22561492816570605 0.0
O O 0.16043466533642572 0.23044162848920272 0.3904115187471903 0.0
N N 0.25941803233268884 0.033726856749622135 0.6957106258552245 0.0
N N 0.19021891266364988 -0.11117621831263484 0.7218779017258506 0.0
C C 0.18922229232428014 0.1042023090811916 0.5374969617860926 0.0
H H 0.22169229232428014 0.17112230908119158 0.5279569617860927 0.0
C C 0.11572040702357393 0.1353293994852255 0.38535069470243233 0.0
C C 0.13247050136702093 0.04218110746746669 0.48085358949114887 0.0
C C 0.09774939688087474 -0.13198156967989833 0.560536652130682 0.0
H H 0.06630939688087473 -0.20260156967989834 0.5693966521306819 0.0
C C 0.2081875060612638 0.013340696892132912 0.6133034243143711 0.0
C C 0.2500011777418101 -0.04498716249217825 0.753964731778316 0.0
C C 0.16849591105919695 -0.0976483873937626 0.6316133623025384 0.0
C C 0.09643930138345035 -0.048914801229296936 0.49509561143664044 0.0
H H 0.05410930138345036 -0.06993480122929692 0.4497556114366405 0.0
O O 0.3363737274929501 0.06428099754959543 0.8740837712385962 0.0
H H 0.31152372749295004 0.12329099754959545 0.8900437712385962 0.0
C C 0.3039318789774871 -0.09928695859297669 0.8347489924046092 0.0
H H 0.2801718789774871 -0.1415759585929767 0.8728889924046092 0.0
C C 0.36382186722608617 -0.16106510139541952 0.8454267478683699 0.0
H H 0.06696526301045534 0.11104920734741532 0.06392312623787562 0.0
H H 0.06696526301045534 0.11104920734741532 0.06392312623787562 0.0
H H 0.3483418672260861 -0.2564471013954195 0.81681674786837 0.0
H H 0.06258817025829227 0.40123448070989676 0.19217492816570605 0.0
Zn Zn -0.16473988690582955 0.3129376242729054 0.2376801625317112 0.0
O O -0.05198070104203477 0.11938157174635018 0.15621891983351466 0.0
O O -0.06973379980278212 0.35840542627017813 0.28163103086954505 0.0
O O -0.15902159154586745 0.2427468642212274 0.12009009004838082 0.0
N N -0.2726011474847215 0.0345727720137145 -0.20361484063608015 0.0
N N -0.18300774096789407 -0.12919518378677317 -0.21054303033225086 0.0
C C -0.1937511850843428 0.0810106835071169 -0.038724473562707494 0.0
H H -0.22622118508434283 0.1479306835071169 -0.0291844735627075 0.0
C C -0.11160673929493033 0.135663236034984 0.11238805103972496 0.0
C C -0.1271644330808568 0.07734680887261691 0.023603602510701788 0.0
C C -0.10702109046654423 -0.11658515429889518 -0.06884455222736478 0.0
H H -0.07558109046654421 -0.1872051542988952 -0.07770455222736476 0.0
C C -0.20899463753890887 0.015250890977744097 -0.11883221996344882 0.0
C C -0.24528620057461653 -0.060724135603658885 -0.2468205148922159 0.0
C C -0.1675222335357634 -0.09216585397280108 -0.1310748102348485 0.0
C C -0.09374297573166061 -0.034574279162922356 0.012297283984627797 0.0
H H -0.051412975731660614 -0.055594279162922346 0.05763728398462779 0.0
O O -0.32892191138441584 0.05277004421176888 -0.36853185829719104 0.0
H H -0.3040719113844158 0.11178004421176889 -0.38449185829719107 0.0
C C -0.30637021217701527 -0.07052458555115572 -0.3401482807903064 0.0
H H -0.28261021217701526 -0.11281358555115573 -0.37828828079030635 0.0
C C -0.3686073193934376 -0.184184221476524 -0.3438628442028615 0.0
H H 0.06696526301045534 0.11104920734741532 0.06392312623787562 0.0
H H 0.06696526301045534 0.11104920734741532 0.06392312623787562 0.0
H H -0.3531273193934376 -0.279566221476524 -0.31525284420286165 0.0
H H -0.0707037998027821 0.3900854262701781 0.3150710308695451 0.0
Zn Zn 0.6580780769141588 0.8148462941804961 0.2722046888134677 0.0
Zn Zn 0.49019224946049245 0.7502506144496046 0.24700708258124107 0.0
O O 0.5553294175682978 0.5930737807516213 0.33533187302389106 0.0
O O 0.5732116941094592 0.8490653983057574 0.21750454023038127 0.0
O O 0.6673038928544595 0.7299283060269031 0.38659983848287033 0.0
N N 0.7653361703870263 0.5447432840932895 0.6936179905184281 0.0
N N 0.6887043982855211 0.3757581950404771 0.71435301143458 0.0
C C 0.6953332033448228 0.6084745296002977 0.5486563723402966 0.0
H H 0.727803203344823 0.6753945296002978 0.5391163723402967 0.0
C C 0.6190629958447197 0.6211764067337505 0.3903185495766194 0.0
C C 0.6395958743068871 0.5677168332549719 0.47840894343806223 0.0
C C 0.6079043921027328 0.3703466013813967 0.5723729873782851 0.0
H H 0.5764643921027329 0.2997266013813967 0.5812329873782851 0.0
C C 0.7146807910247555 0.5259424598308475 0.6202253123072782 0.0
C C 0.7449677793707054 0.43060811523427944 0.7467276193693296 0.0
C C 0.658584930966303 0.41572492337758327 0.6352304344337727 0.0
C C 0.5772183329607041 0.46139341697735187 0.4904282499633016 0.0
H H 0.5348883329607041 0.44037341697735183 0.4450882499633016 0.0
O O 0.8310218061663253 0.5479791193146832 0.8637275823652705 0.0
H H 0.8061718061663252 0.6069891193146834 0.8796875823652704 0.0
C C 0.7963548398073949 0.4080415864034268 0.8304735708132484 0.0
H H 0.7725948398073949 0.3657525864034268 0.8686135708132483 0.0
C C 0.8681456612021936 0.3329422799512639 0.8394567170201723 0.0
H H 0.06696526301045534 0.11104920734741532 0.06392312623787562 0.0
H H 0.06696526301045534 0.11104920734741532 0.06392312623787562 0.0
H H 0.8526656612021937 0.23756027995126391 0.8108467170201724 0.0
H H 0.5741816941094592 0.8807453983057576 0.1840645402303813 0.0
Zn Zn 0.33895134753552963 0.8107614454790777 0.23225060653050236 0.0
O O 0.4502398516303381 0.5995422656585698 0.16078134738340694 0.0
O O 0.4332321106435157 0.8517824294335856 0.2763471039424688 0.0
O O 0.3473828976637285 0.7403165018070373 0.12201217828752225 0.0
N N 0.23095895570030367 0.5499482895964605 -0.19935105989606136 0.0
N N 0.3165159480909373 0.37800643612756557 -0.21546262268742764 0.0
C C 0.2952745562337843 0.6031961418632374 -0.04457959481674383 0.0
H H 0.2628045562337843 0.6701161418632375 -0.03503959481674384 0.0
C C 0.38478139836038017 0.6523935775625901 0.10704495426827094 0.0
C C 0.3624700931901724 0.5619501142690194 0.01755177300177077 0.0
C C 0.39864568235474585 0.39135440355294865 -0.07105845181183049 0.0
H H 0.43008568235474576 0.32073440355294863 -0.07991845181183047 0.0
C C 0.29410061972354695 0.514962699513023 -0.11392494753680041 0.0
C C 0.25592634171581546 0.4280140844032393 -0.24997313552357375 0.0
C C 0.33315138438848063 0.4159293954617854 -0.13001617942415988 0.0
C C 0.4153260642533946 0.4539288229304865 0.013324095785564358 0.0
H H 0.4576560642533946 0.4329088229304864 0.05866409578556435 0.0
O O 0.1644311133728421 0.5372550131388061 -0.3695243508816934 0.0
H H 0.18928111337284212 0.5962650131388061 -0.3854843508816934 0.0
C C 0.2039939795785829 0.42495470268302193 -0.3312060808903258 0.0
H H 0.22775397957858287 0.3826657026830219 -0.3693460808903258 0.0
C C 0.1275148019718136 0.31776405752523423 -0.33652256297667954 0.0
H H 0.06696526301045534 0.11104920734741532 0.06392312623787562 0.0
H H 0.06696526301045534 0.11104920734741532 0.06392312623787562 0.0
H H 0.1429948019718136 0.2223820575252342 -0.3079125629766797 0.0
H H 0.4322621106435158 0.8834624294335858 0.30978710394246883 0.0
Zn Zn -0.1618739534458286 -0.2860594722933893 -0.26841181302153433 0.0
Zn Zn -0.0034612422008526195 -0.2506008093662289 -0.2584323556290532 0.0
O O -0.0482347071793233 -0.12322415489583236 -0.34294968819364774 0.0
O O -0.07462103221750632 -0.3641424603197297 -0.2227664844120943 0.0
O O -0.15091804235312728 -0.2376089311222577 -0.3841362769233631 0.0
N N -0.2684105102901755 -0.061551418793935185 -0.7022814257568233 0.0
N N -0.19181237212795624 0.1159153428618687 -0.7124213502590755 0.0
C C -0.20147371192973476 -0.10563730930690404 -0.5488472897117381 0.0
H H -0.2339437119297348 -0.17255730930690402 -0.5393072897117382 0.0
C C -0.11035861255568084 -0.14886741863462774 -0.39859807267994335 0.0
C C -0.12957736572111006 -0.07199938357954122 -0.4812748845462011 0.0
C C -0.10580887305616365 0.11955054234954571 -0.570660382747346 0.0
H H -0.07436887305616365 0.1901705423495457 -0.5795203827473459 0.0
C C -0.21487873868104893 -0.04386038274313626 -0.6240542844740917 0.0
C C -0.2534297083484493 0.034394183507809845 -0.7508910241973774 0.0
C C -0.1654292166311852 0.08309870412605934 -0.6385061517645283 0.0
C C -0.0827068515594914 0.0214763001089415 -0.49511512331193724 0.0
H H -0.0403768515594914 0.04249630010894148 -0.44977512331193725 0.0
O O -0.3410656260795015 -0.03078844197357734 -0.8637002562734377 0.0
H H -0.3162156260795015 -0.08979844197357734 -0.8796602562734377 0.0
C C -0.30129521043017554 0.0839705554357042 -0.8434018812356231 0.0
H H -0.27753521043017554 0.12625955543570422 -0.881541881235623 0.0
C C -0.3635331873625522 0.16798366803908255 -0.8467393635105176 0.0
H H 0.06696526301045534 0.11104920734741532 0.06392312623787562 0.0
H H 0.06696526301045534 0.11104920734741532 0.06392312623787562 0.0
H H -0.3480531873625522 0.2633656680390825 -0.8181293635105177 0.0
H H -0.07559103221750633 -0.3958224603197297 -0.18932648441209432 0.0
Zn Zn 0.15542239428566387 -0.28861279087349395 -0.2282408801996683 0.0
O O 0.05490955030507338 -0.12316105655046633 -0.17095022952092628 0.0
O O 0.07014873431817213 -0.37879271379503765 -0.28019348638592795 0.0
O O 0.16234092062101313 -0.24207075976053907 -0.11524489087802348 0.0
N N 0.2578119835216724 -0.04414926431033928 0.19488164543112063 0.0
N N 0.18628301947561235 0.1185582746523115 0.220063647780726 0.0
C C 0.20239595711039757 -0.09037108123004264 0.049620337737767126 0.0
H H 0.23486595711039757 -0.15729108123004262 0.04008033773776713 0.0
C C 0.1139687937098712 -0.12447685162597155 -0.10493410635270668 0.0
C C 0.13792974941141056 -0.04885804950607627 -0.020416048235200605 0.0
C C 0.10896549041150222 0.12285349007127143 0.0714917149806114 0.0
H H 0.07752549041150222 0.19347349007127143 0.08035171498061139 0.0
C C 0.2153299427836506 -0.017955578299160734 0.1239034970199976 0.0
C C 0.2538910677790503 0.04689891931400106 0.255193240430898 0.0
C C 0.16633479767261308 0.0626867380367551 0.130313790570403 0.0
C C 0.08821950231001947 0.0448810733881602 -0.006324511776553946 0.0
H H 0.04588950231001946 0.06590107338816019 -0.05166451177655394 0.0
O O 0.33953896718829535 -0.04446559103318902 0.376614567823211 0.0
H H 0.31468896718829537 -0.10347559103318903 0.39257456782321104 0.0
C C 0.307605884986497 0.0869989897125422 0.3421043550722613 0.0
H H 0.283845884986497 0.1292879897125422 0.38024435507226123 0.0
C C 0.37156648616788457 0.19249172317270516 0.3412002203950971 0.0
H H 0.06696526301045534 0.11104920734741532 0.06392312623787562 0.0
H H 0.06696526301045534 0.11104920734741532 0.06392312623787562 0.0
H H 0.3560864861678846 0.2878737231727052 0.31259022039509726 0.0
H H 0.07111873431817212 -0.41047271379503764 -0.313633486385928 0.0
Zn Zn 0.3423956970629505 0.20769366228757494 -0.2678133762311059 0.0
Zn Zn 0.4950074458658922 0.2614222840165991 -0.253844070011815 0.0
O O 0.44792197415058405 0.3910912702562968 -0.34241598393198436 0.0
O O 0.4332885055128535 0.11953009955598479 -0.22451146107412986 0.0
O O 0.34284155614724027 0.2642139306260329 -0.38817926069558584 0.0
N N 0.2395062414037239 0.4601762457381868 -0.7013928241862526 0.0
N N 0.3034688922007252 0.6335637739248453 -0.7103617113374797 0.0
C C 0.3015687024831529 0.40788620836377465 -0.5485535275541206 0.0
H H 0.26909870248315276 0.3409662083637746 -0.5390135275541207 0.0
C C 0.3836418597454952 0.37800745224382426 -0.3844420380706848 0.0
C C 0.3661499603905926 0.4188492598910347 -0.4760026064910168 0.0
C C 0.396827190185892 0.627412302496607 -0.5659196919676179 0.0
H H 0.4282671901858919 0.698032302496607 -0.5747796919676179 0.0
C C 0.29705249292782465 0.4597723030040723 -0.6226913274847218 0.0
C C 0.25508181124591267 0.5540529102516661 -0.7437279705307784 0.0
C C 0.3295219842397797 0.5903732219503971 -0.6296410628764059 0.0
C C 0.4225019486316232 0.5397427160798961 -0.4866772468291864 0.0
H H 0.46483194863162314 0.560762716079896 -0.4413372468291864 0.0
O O 0.1628299191653413 0.44183686689389634 -0.8758922692121173 0.0
H H 0.18767991916534138 0.3828268668938963 -0.8918522692121174 0.0
C C 0.20137732636262257 0.5759713499982695 -0.8478224871756852 0.0
H H 0.2251373263626226 0.6182603499982695 -0.8859624871756852 0.0
C C 0.12816537537467854 0.6625762358128788 -0.8429741201210396 0.0
H H 0.06696526301045534 0.11104920734741532 0.06392312623787562 0.0
H H 0.06696526301045534 0.11104920734741532 0.06392312623787562 0.0
H H 0.1436453753746785 0.757958235812879 -0.8143641201210396 0.0
H H 0.43231850551285356 0.0878500995559848 -0.1910714610741299 0.0
Zn Zn 0.6583066178033495 0.20126156722849373 -0.22592571898539224 0.0
O O 0.5529850656070364 0.40549874108884687 -0.16496357016220636 0.0
O O 0.5658701825078182 0.12100554612992385 -0.27552026367429155 0.0
O O 0.6520000630590228 0.27695252053729486 -0.12688080394166146 0.0
N N 0.7723201531468883 0.4472877845316814 0.1950209380425455 0.0
N N 0.6922183345049852 0.6227781116929916 0.21205299461686647 0.0
C C 0.7033814402879552 0.3902212616262268 0.04677125004843054 0.0
H H 0.7358514402879551 0.3233012616262268 0.037231250048430545 0.0
C C 0.6234139453766399 0.3718120173681449 -0.10172255881652052 0.0
C C 0.6282852561784218 0.4496182978346673 -0.023965249024188312 0.0
C C 0.60474349810504 0.6099758590606209 0.059996075262667994 0.0
H H 0.57330349810504 0.6805958590606209 0.06885607526266797 0.0
C C 0.7110720471278773 0.46158469147146836 0.11057321303515497 0.0
C C 0.7572543854734505 0.5566510433189863 0.2491697097579041 0.0
C C 0.6605993664979406 0.5839534622919786 0.12921032306711008 0.0
C C 0.5931594735844727 0.5420399078535914 -0.008452028256949243 0.0
H H 0.5508294735844729 0.5630599078535913 -0.05379202825694923 0.0
O O 0.838844721728625 0.453240420817237 0.363774282546561 0.0
H H 0.813994721728625 0.3942304208172369 0.37973428254656105 0.0
C C 0.7938626254222629 0.5844265506660976 0.3412916234105038 0.0
H H 0.7701026254222628 0.6267155506660975 0.37943162341050374 0.0
C C 0.8623764047842816 0.6899409367695046 0.3381747221593279 0.0
H H 0.06696526301045534 0.11104920734741532 0.06392312623787562 0.0
H H 0.06696526301045534 0.11104920734741532 0.06392312623787562 0.0
H H 0.8468964047842816 0.7853229367695047 0.30956472215932807 0.0
H H 0.5668401825078182 0.08932554612992388 -0.30896026367429164 0.0
