_cell_length_a 20.4364
_cell_length_b 9.005017
_cell_length_c 16.6723
_cell_angle_alpha 90.0
_cell_angle_beta 110.2303
_cell_angle_gamma 90.0
_symmetry_space_group_name_H-M         'P 1'
_symmetry_Int_Tables_number            1
loop_
_symmetry_equiv_pos_as_xyz
   'x, y, z'
                         
loop_
_atom_site_label
_atom_site_type_symbol
_atom_site_fract_x 
_atom_site_fract_y
_atom_site_fract_z
_atom_site_charge
Zn Zn 0.16301770028980758 0.2900156042103804 0.26245999321733793 0.0
Zn Zn 0.001659120499364809 0.2546808205224842 0.25265465670390597 0.0
O O 0.04962256144858201 0.10744222609431897 0.3339844484902385 0.0
O O 0.06579131254864015 0.3594765743017207 0.21371509637977845 0.0
O O 0.15394741129608747 0.2132645143372247 0.38270142540103924 0.0
N N 0.26435287320872786 0.029515333028400086 0.6996324537482818 0.0
N N 0.18980749861199425 -0.1287025283036138 0.7092047618637674 0.0
C C 0.20018341949983576 0.10187354281514703 0.5392773425494698 0.0
H H 0.23265341949983578 0.168793542815147 0.5297373425494699 0.0
C C 0.11721607683274708 0.14778777049477426 0.40244573994789107 0.0
C C 0.12644977729759743 0.07356406922430056 0.4779429995570891 0.0
C C 0.09913959090539144 -0.11263039307806924 0.5737383654150765 0.0
H H 0.06769959090539143 -0.18325039307806923 0.5825983654150765 0.0
C C 0.20853564883937578 0.027010952206483738 0.6266233866216088 0.0
C C 0.2520412106478796 -0.056056941341633165 0.7560859424273426 0.0
C C 0.16838968615308444 -0.08691652143366872 0.6360524098381057 0.0
C C 0.09057173059062153 -0.0430513401667474 0.4994582564534047 0.0
H H 0.04824173059062154 -0.06407134016674738 0.4541182564534047 0.0
O O 0.344776371551579 0.034558829818431336 0.8737652320323014 0.0
H H 0.319926371551579 0.09356882981843134 0.8897252320323015 0.0
C C 0.3013457112504539 -0.08421938949412769 0.8374104953258278 0.0
H H 0.27758571125045395 -0.12650838949412768 0.8755504953258277 0.0
C C 0.3654447781428979 -0.1687274126680869 0.8306730985435239 0.0
H H 0.06696526301045534 0.11104920734741532 0.06392312623787562 0.0
H H 0.06696526301045534 0.11104920734741532 0.06392312623787562 0.0
H H 0.3499647781428979 -0.2641094126680869 0.802063098543524 0.0
H H 0.06676131254864016 0.39115657430172074 0.18027509637977845 0.0
Zn Zn -0.15372635248702726 0.29463448619941823 0.24093206784628712 0.0
O O -0.04921619627236359 0.11574884182794369 0.16882118557690973 0.0
O O -0.06543534294971502 0.35798856917571087 0.2753798361819694 0.0
O O -0.15611420821072464 0.23994373725590304 0.11781445669766794 0.0
N N -0.27087130351070343 0.05227412940342028 -0.19615336858039872 0.0
N N -0.18615116625823505 -0.12973441181821696 -0.21285139636495082 0.0
C C -0.18936233674837238 0.08854165373211192 -0.03323279050515502 0.0
H H -0.2218323367483724 0.15546165373211193 -0.02369279050515503 0.0
C C -0.10811389365555622 0.13370693955972776 0.10853204637298726 0.0
C C -0.13037095234757828 0.07407596992818957 0.030394153988461264 0.0
C C -0.10145263692258293 -0.10713357324135178 -0.06861888978458089 0.0
H H -0.07001263692258292 -0.17775357324135177 -0.07747888978458088 0.0
C C -0.21354654830644715 0.02385177593489385 -0.11902554066541286 0.0
C C -0.25422562351662104 -0.03726798565639583 -0.2479234530211199 0.0
C C -0.15791518575314836 -0.09021497591483423 -0.13098378306986228 0.0
C C -0.09430531729570216 -0.03644541084510296 0.0026712339744987064 0.0
H H -0.05197531729570215 -0.05746541084510295 0.0480112339744987 0.0
O O -0.3315044539279062 0.05040954183824382 -0.36662549867197874 0.0
H H -0.30665445392790613 0.10941954183824382 -0.3825854986719787 0.0
C C -0.30585399494538623 -0.07390731882422019 -0.34608820984606975 0.0
H H -0.28209399494538623 -0.11619631882422017 -0.3842282098460697 0.0
C C -0.3698243567639192 -0.18221536165567478 -0.33404243794139166 0.0
H H 0.06696526301045534 0.11104920734741532 0.06392312623787562 0.0
H H 0.06696526301045534 0.11104920734741532 0.06392312623787562 0.0
H H -0.35434435676391923 -0.2775973616556748 -0.3054324379413918 0.0
H H -0.06640534294971502 0.38966856917571085 0.3088198361819694 0.0
Zn Zn 0.667973281488413 0.8020515880280326 0.2730859771680011 0.0
Zn Zn 0.49737661433063884 0.7354284292228509 0.2527320475801117 0.0
O O 0.5602942622054331 0.6166515108754858 0.3429886570429536 0.0
O O 0.5590870127043902 0.866866241300479 0.22368269260382237 0.0
O O 0.6502139756242861 0.7342214767283075 0.3788501581857475 0.0
N N 0.7622901273962185 0.5293407231420577 0.7006335676707597 0.0
N N 0.6943962367229563 0.3629610297498889 0.7203385271586558 0.0
C C 0.6962654970319148 0.5861301060399038 0.5333932361421856 0.0
H H 0.7287354970319149 0.6530501060399039 0.5238532361421857 0.0
C C 0.6180536241942639 0.653508558618589 0.3962216192094446 0.0
C C 0.6315765542994862 0.5461391211326441 0.4707457588701724 0.0
C C 0.594988537639149 0.3978571175713353 0.5627823361335387 0.0
H H 0.5635485376391491 0.3272371175713353 0.5716423361335385 0.0
C C 0.7111071083605908 0.5244189076529571 0.6205800194750879 0.0
C C 0.7534446921252191 0.44969498716700834 0.7477496262122435 0.0
C C 0.6692724784486 0.41218092791084654 0.640298252866931 0.0
C C 0.5866711794883408 0.46468136916441055 0.499040452618059 0.0
H H 0.5443411794883408 0.44366136916441046 0.453700452618059 0.0
O O 0.842457498219656 0.5462562416003588 0.8665715371544517 0.0
H H 0.8176074982196558 0.6052662416003589 0.8825315371544518 0.0
C C 0.7926890711012843 0.4073042631960853 0.8347452019352702 0.0
H H 0.7689290711012843 0.3650152631960853 0.8728852019352702 0.0
C C 0.860372157078047 0.3128909809071992 0.8313985838503797 0.0
H H 0.06696526301045534 0.11104920734741532 0.06392312623787562 0.0
H H 0.06696526301045534 0.11104920734741532 0.06392312623787562 0.0
H H 0.8448921570780472 0.21750898090719914 0.8027885838503797 0.0
H H 0.5600570127043902 0.8985462413004791 0.1902426926038224 0.0
Zn Zn 0.3385894555993847 0.8184342575240343 0.22626641550459248 0.0
O O 0.45169829962318325 0.6075293488010538 0.16670458470418448 0.0
O O 0.44173104130344576 0.8634230686193827 0.28734786492762177 0.0
O O 0.3435383751334509 0.7308979273318562 0.11280798387122473 0.0
N N 0.22790865760215473 0.5517824058128695 -0.19716536136783985 0.0
N N 0.3062463016604557 0.38463953185920097 -0.21529043198501593 0.0
C C 0.3108009250403001 0.5939750739008122 -0.032819961592100766 0.0
H H 0.2783309250403001 0.6608950739008123 -0.023279961592100773 0.0
C C 0.38220381162040323 0.635460368670998 0.1113575776905129 0.0
C C 0.37137568427361856 0.5603657434670473 0.020865301188597803 0.0
C C 0.3968742307586671 0.3935748424744176 -0.0693245751171 0.0
H H 0.42831423075866704 0.3229548424744175 -0.07818457511709999 0.0
C C 0.2910298279872191 0.5130023063379585 -0.12666238035674982 0.0
C C 0.24431258222498384 0.43375997479283407 -0.25404946827887864 0.0
C C 0.3429888966964716 0.4129427501006912 -0.1261312455265007 0.0
C C 0.414986712640908 0.46791687069751803 0.0027548290892434905 0.0
H H 0.457316712640908 0.446896870697518 0.04809482908924348 0.0
O O 0.1642403035328633 0.5386709405051149 -0.373486861155038 0.0
H H 0.18909030353286338 0.5976809405051149 -0.38944686115503796 0.0
C C 0.20246026892226923 0.428135018049442 -0.3455817234060659 0.0
H H 0.2262202689222692 0.3858460180494419 -0.38372172340606586 0.0
C C 0.1363934617614395 0.3301576648762421 -0.34106870263110156 0.0
H H 0.06696526301045534 0.11104920734741532 0.06392312623787562 0.0
H H 0.06696526301045534 0.11104920734741532 0.06392312623787562 0.0
H H 0.15187346176143948 0.2347756648762421 -0.31245870263110165 0.0
H H 0.44076104130344573 0.8951030686193829 0.3207878649276218 0.0
Zn Zn -0.16274450719301323 -0.31363606360429014 -0.2658894969685163 0.0
Zn Zn 7.650280637936661e-05 -0.25383843494546354 -0.25775626310605343 0.0
O O -0.053674886024703376 -0.11813394384544958 -0.3317922581702677 0.0
O O -0.057712717534441904 -0.3574384735163176 -0.21171253265523912 0.0
O O -0.15810533587634454 -0.21946363230419663 -0.37920741757339044 0.0
N N -0.2637424691128361 -0.04324466029198204 -0.6938984119407032 0.0
N N -0.19723188641390438 0.14017126405325422 -0.7241508047085194 0.0
C C -0.19520587245199314 -0.09103728888219971 -0.5451185572154991 0.0
H H -0.2276758724519932 -0.15795728888219968 -0.5355785572154992 0.0
C C -0.11701879336755941 -0.13502357180960625 -0.3869381045327886 0.0
C C -0.13406327790348227 -0.06515212222988555 -0.4778621768583353 0.0
C C -0.10132041503802187 0.10739196323926029 -0.5648430493310463 0.0
H H -0.06988041503802185 0.1780119632392603 -0.5737030493310462 0.0
C C -0.21164738035940514 -0.03977210751427413 -0.6209462542079321 0.0
C C -0.24854210819767283 0.04976448117561104 -0.7520529569319686 0.0
C C -0.16173363154001252 0.0700252806806209 -0.6335901843738241 0.0
C C -0.08874490508442356 0.03564328478092331 -0.4968487355635229 0.0
H H -0.046414905084423565 0.0566632847809233 -0.4515087355635229 0.0
O O -0.34402935257438083 -0.061827466023681395 -0.8762660356031847 0.0
H H -0.31917935257438085 -0.1208374660236814 -0.8922260356031848 0.0
C C -0.3028094965315597 0.07057683175093633 -0.8416984863281955 0.0
H H -0.2790494965315597 0.11286583175093633 -0.8798384863281955 0.0
C C -0.36895248254696433 0.18042350455655717 -0.8444344190800926 0.0
H H 0.06696526301045534 0.11104920734741532 0.06392312623787562 0.0
H H 0.06696526301045534 0.11104920734741532 0.06392312623787562 0.0
H H -0.35347248254696434 0.27580550455655717 -0.8158244190800927 0.0
H H -0.05868271753444191 -0.3891184735163176 -0.17827253265523912 0.0
Zn Zn 0.16652888215964787 -0.3107421628912182 -0.23200592536756118 0.0
O O 0.05816390959334364 -0.12375214685482289 -0.1659221967476283 0.0
O O 0.059251347991137834 -0.3562343245883771 -0.2814523737724511 0.0
O O 0.16237129715765639 -0.23541507906747347 -0.11205658163368999 0.0
N N 0.269960064961691 -0.030169107099865238 0.20413028902446564 0.0
N N 0.19213837536068082 0.11646168488611486 0.2244746150609085 0.0
C C 0.19945349023599757 -0.10651647993601347 0.047472675071026996 0.0
H H 0.23192349023599756 -0.17343647993601347 0.037932675071027 0.0
C C 0.11022611235716422 -0.12452923518033805 -0.10775914098578487 0.0
C C 0.13439443078943572 -0.05262664376576489 -0.013568292456340947 0.0
C C 0.09908651489880861 0.1022637312301743 0.07251777276473816 0.0
H H 0.0676465148988086 0.1728837312301743 0.08137777276473813 0.0
C C 0.20157258647088266 -0.03128446196447202 0.11821853493172692 0.0
C C 0.2450616325214142 0.054173622869594505 0.2551727535789921 0.0
C C 0.16252330066581852 0.06678675529202827 0.12614958966768727 0.0
C C 0.07992926085910063 0.02965165745932715 -0.017056550935581213 0.0
H H 0.037599260859100626 0.050671657459327134 -0.062396550935581205 0.0
O O 0.3400928333609823 -0.036803341284843936 0.3732646458661425 0.0
H H 0.31524283336098224 -0.09581334128484394 0.38922464586614247 0.0
C C 0.2978007241141427 0.07087016251358183 0.3312087127479143 0.0
H H 0.27404072411414265 0.11315916251358181 0.36934871274791425 0.0
C C 0.36865166946573596 0.1762554889119582 0.3469483609287935 0.0
H H 0.06696526301045534 0.11104920734741532 0.06392312623787562 0.0
H H 0.06696526301045534 0.11104920734741532 0.06392312623787562 0.0
H H 0.3531716694657359 0.27163748891195816 0.31833836092879364 0.0
H H 0.060221347991137826 -0.3879143245883771 -0.3148923737724511 0.0
Zn Zn 0.33718553329910306 0.19139564590061428 -0.2626835535489157 0.0
Zn Zn 0.500482672957276 0.2544218868508973 -0.24300674574459505 0.0
O O 0.44479962712060933 0.3749649071163054 -0.3419761913861803 0.0
O O 0.44280699413770774 0.1366824155027579 -0.2169072734100949 0.0
O O 0.3429700137553237 0.2681115406996893 -0.38193572039309415 0.0
N N 0.23565929028721222 0.44827109245674224 -0.7033855325920857 0.0
N N 0.3088328427604578 0.6203330042390878 -0.7212990734376726 0.0
C C 0.31011893090101694 0.39568069365736747 -0.5374687952466369 0.0
H H 0.27764893090101683 0.3287606936573675 -0.527928795246637 0.0
C C 0.3802179731314608 0.3472706458783419 -0.3914339554777869 0.0
C C 0.3672339792684508 0.4484431926422683 -0.4790719301033064 0.0
C C 0.4042022148762026 0.6244863132264011 -0.565461807051583 0.0
H H 0.43564221487620247 0.6951063132264013 -0.5743218070515829 0.0
C C 0.29064616231449486 0.4758894210287878 -0.6241723173391301 0.0
C C 0.2518968450703673 0.5630187822083587 -0.7489543723604358 0.0
C C 0.3413866062184787 0.574321726500142 -0.6353414026918023 0.0
C C 0.41367161625931914 0.5314900891459786 -0.4859326655743848 0.0
H H 0.4560016162593191 0.5525100891459785 -0.44059266557438487 0.0
O O 0.15889883006744002 0.45043431281716784 -0.8699813876283002 0.0
H H 0.18374883006744006 0.3914243128171677 -0.8859413876283003 0.0
C C 0.19303767401035513 0.5847417732304566 -0.8467352729680657 0.0
H H 0.21679767401035516 0.6270307732304566 -0.8848752729680657 0.0
C C 0.13778565124400818 0.6864726308017742 -0.8296903727249622 0.0
H H 0.06696526301045534 0.11104920734741532 0.06392312623787562 0.0
H H 0.06696526301045534 0.11104920734741532 0.06392312623787562 0.0
H H 0.15326565124400818 0.7818546308017744 -0.8010803727249622 0.0
H H 0.44183699413770783 0.1050024155027579 -0.18346727341009492 0.0
Zn Zn 0.654940400157808 0.19086292576318079 -0.24106957940355686 0.0
O O 0.562042005647568 0.39495051817555643 -0.15630019742754528 0.0
O O 0.5640653021382089 0.11903157908065372 -0.2740162432108117 0.0
O O 0.6639047252604895 0.2718753644340466 -0.11610801907797186 0.0
N N 0.7637774240820279 0.4459465648338649 0.1973897161711897 0.0
N N 0.6877781715426828 0.6196993960740188 0.2205056825099711 0.0
C C 0.6975646179911469 0.39202599670156246 0.038830557763792586 0.0
H H 0.7300346179911468 0.3251059967015625 0.02929055776379259 0.0
C C 0.6211972405573933 0.35501395922063883 -0.09999845629448462 0.0
C C 0.6283186476835982 0.42640617837637945 -0.025664814357571935 0.0
C C 0.5994110464934932 0.6211780006354675 0.07288270472604452 0.0
H H 0.5679710464934932 0.6917980006354675 0.0817427047260445 0.0
C C 0.7110877582402794 0.4829601024560663 0.12173401684386397 0.0
C C 0.7464036316175113 0.5470271051793675 0.24994307466634838 0.0
C C 0.6648246715822314 0.5761158009481115 0.1260503091676942 0.0
C C 0.5856465492265289 0.5374010776083206 -0.017306513613131604 0.0
H H 0.5433165492265289 0.5584210776083206 -0.0626465136131316 0.0
O O 0.8382467650183245 0.4598547952539225 0.36886763192286437 0.0
H H 0.8133967650183245 0.4008447952539224 0.38482763192286434 0.0
C C 0.7957643356428694 0.5730565981675211 0.33147140182128415 0.0
H H 0.7720043356428695 0.6153455981675211 0.3696114018212841 0.0
C C 0.8669026456250163 0.6724472262293526 0.3324338347418 0.0
H H 0.06696526301045534 0.11104920734741532 0.06392312623787562 0.0
H H 0.06696526301045534 0.11104920734741532 0.06392312623787562 0.0
H H 0.8514226456250163 0.7678292262293527 0.3038238347418001 0.0
H H 0.565035302138209 0.08735157908065372 -0.30745624321081166 0.0
