_cell_length_a 20.4364
_cell_length_b 9.005017
_cell_length_c 16.6723
_cell_angle_alpha 90.0
_cell_angle_beta 110.2303
_cell_angle_gamma 90.0
_symmetry_space_group_name_H-M         'P 1'
_symmetry_Int_Tables_number            1
loop_
_symmetry_equiv_pos_as_xyz
   'x, y, z'
                         
loop_
_atom_site_label
_atom_site_type_symbol
_atom_site_fract_x 
_atom_site_fract_y
_atom_site_fract_z
_atom_site_charge
Zn Zn 0.1565286387469918 0.3106815871167902 0.27177374817315253 0.0
Zn Zn -0.0032785137122406174 0.24098751594412982 0.25596555228469453 0.0
O O 0.05114958119475157 0.126938079898755 0.3369128254073826 0.0
O O 0.07037196996791578 0.3782026360023821 0.2230262802005024 0.0
O O 0.1600129605074158 0.22708894427782744 0.3911484684032283 0.0
N N 0.26324638802673955 0.03943664062377285 0.6900210103281067 0.0
N N 0.19201505048416614 -0.11777483762370348 0.7115037714381398 0.0
C C 0.190034689998835 0.08608260224718374 0.5430058585722063 0.0
H H 0.22250468999883502 0.1530026022471837 0.5334658585722064 0.0
C C 0.11708268404936507 0.14396518630695468 0.38535154626133833 0.0
C C 0.12900958077927596 0.06443859188080103 0.4832203412432756 0.0
C C 0.1015662438583707 -0.12724536391555033 0.5699506135374117 0.0
H H 0.07012624385837068 -0.19786536391555035 0.5788106135374117 0.0
C C 0.21302426614470701 0.03417428749607702 0.6284379966783628 0.0
C C 0.24368186886484974 -0.04399462435463345 0.7497453737936828 0.0
C C 0.16130222299794175 -0.06784545197932441 0.629531974484039 0.0
C C 0.08733540981136532 -0.02774861174256804 0.4922393104745892 0.0
H H 0.04500540981136533 -0.048768611742568024 0.4468993104745892 0.0
O O 0.33647913798742213 0.05516456708799971 0.8794394438728895 0.0
H H 0.31162913798742214 0.1141745670879997 0.8953994438728896 0.0
C C 0.2950207163348728 -0.07863864894514727 0.8387294556699967 0.0
H H 0.2712607163348728 -0.12092764894514726 0.8768694556699966 0.0
C C 0.3661985309263192 -0.19380705737643905 0.8384167507128482 0.0
H H 0.06696526301045534 0.11104920734741532 0.06392312623787562 0.0
H H 0.06696526301045534 0.11104920734741532 0.06392312623787562 0.0
H H 0.3507185309263192 -0.289189057376439 0.8098067507128482 0.0
H H 0.07134196996791578 0.40988263600238206 0.18958628020050244 0.0
Zn Zn -0.1691129886509648 0.3064857853638568 0.2284951449331469 0.0
O O -0.0614431875366551 0.12021267806975308 0.15440567754910745 0.0
O O -0.0738506647520832 0.3615041159437685 0.27611523157914536 0.0
O O -0.15948465533733733 0.22888373069859574 0.11596125698496622 0.0
N N -0.25876327110190506 0.04567812431891461 -0.18655651181769067 0.0
N N -0.1892330526416235 -0.12528180432098934 -0.21109332466250288 0.0
C C -0.20260375905350414 0.08637676868250985 -0.047164152204443296 0.0
H H -0.23507375905350417 0.15329676868250983 -0.037624152204443304 0.0
C C -0.12199464321116314 0.12650792498225225 0.10415444589247949 0.0
C C -0.13232635440873045 0.05914024680921118 0.017729615086173132 0.0
C C -0.0953682102042943 -0.10672016082715943 -0.06438919676277023 0.0
H H -0.06392821020429429 -0.17734016082715945 -0.07324919676277022 0.0
C C -0.20773173867336153 0.012234862397869002 -0.12331023240202264 0.0
C C -0.25615380369695206 -0.05776378344978184 -0.25522573264867565 0.0
C C -0.1604132321403342 -0.09050044694643428 -0.12660020950717926 0.0
C C -0.08926531487376478 -0.058095355271687674 0.007108875259367517 0.0
H H -0.04693531487376479 -0.07911535527168767 0.052448875259367506 0.0
O O -0.3377998740712281 0.0648407674762205 -0.37217378578905136 0.0
H H -0.3129498740712281 0.12385076747622048 -0.3881337857890514 0.0
C C -0.2997691028080829 -0.07708122630819028 -0.3311456450363032 0.0
H H -0.2760091028080829 -0.11937022630819027 -0.3692856450363032 0.0
C C -0.36247644216072084 -0.18926217056480846 -0.33900805190923955 0.0
H H 0.06696526301045534 0.11104920734741532 0.06392312623787562 0.0
H H 0.06696526301045534 0.11104920734741532 0.06392312623787562 0.0
H H -0.34699644216072084 -0.2846441705648085 -0.3103980519092397 0.0
H H -0.0748206647520832 0.3931841159437685 0.3095552315791454 0.0
Zn Zn 0.6560952510594709 0.8069330241219137 0.2653369406883879 0.0
Zn Zn 0.5071975613598042 0.7506341129291655 0.25754350680923715 0.0
O O 0.5496243647965416 0.6145571587635585 0.34139391683461917 0.0
O O 0.5670742141552052 0.8689329046853503 0.21700776243507042 0.0
O O 0.6554236894009651 0.711864598233424 0.38582404497447975 0.0
N N 0.764154440860925 0.5399186527103587 0.7046170339586354 0.0
N N 0.6957570876958675 0.35269426135976883 0.7194645844247252 0.0
C C 0.7011360000884767 0.583778043468152 0.5492504882302399 0.0
H H 0.7336060000884768 0.6506980434681521 0.53971048823024 0.0
C C 0.6152265789226912 0.6397261355736013 0.40276214503648394 0.0
C C 0.6303452325744249 0.5508036485725784 0.48033072604261245 0.0
C C 0.5949986672061321 0.38237591063097637 0.5615444555859445 0.0
H H 0.5635586672061321 0.31175591063097635 0.5704044555859443 0.0
C C 0.7064284553798807 0.5340058966230099 0.6118940713663312 0.0
C C 0.7520120787934669 0.465411128688581 0.7500791134441989 0.0
C C 0.6568312874122906 0.4218354839903826 0.629407469176503 0.0
C C 0.5860478693760721 0.44440067972363506 0.4844088520371462 0.0
H H 0.5437178693760721 0.4233806797236351 0.4390688520371462 0.0
O O 0.8454424736214777 0.5550194201972971 0.8734605248395236 0.0
H H 0.8205924736214777 0.6140294201972971 0.8894205248395237 0.0
C C 0.7962395617045352 0.42580420348431347 0.836095641731448 0.0
H H 0.7724795617045352 0.3835152034843134 0.874235641731448 0.0
C C 0.8706199828910003 0.32301476365746845 0.8359084577761303 0.0
H H 0.06696526301045534 0.11104920734741532 0.06392312623787562 0.0
H H 0.06696526301045534 0.11104920734741532 0.06392312623787562 0.0
H H 0.8551399828910005 0.22763276365746843 0.8072984577761304 0.0
H H 0.5680442141552052 0.9006129046853505 0.18356776243507045 0.0
Zn Zn 0.3412543503193291 0.8098934494121595 0.2340829778629254 0.0
O O 0.4448702864182697 0.6128305284735013 0.16257793912912988 0.0
O O 0.43723915821971715 0.8740926875670814 0.2735459736197159 0.0
O O 0.3403582776272882 0.7195459829550375 0.11868490404619383 0.0
N N 0.2353906697946842 0.5362108502752931 -0.197288395001751 0.0
N N 0.3130173844989336 0.3645335605299908 -0.21393772139511202 0.0
C C 0.31023422317111027 0.6092317021398148 -0.04240908955174114 0.0
H H 0.27776422317111027 0.6761517021398149 -0.03286908955174115 0.0
C C 0.389663571559691 0.6410669726776541 0.11453983761967426 0.0
C C 0.3652114306819974 0.5473729026671521 0.026682892571163595 0.0
C C 0.4019513534861044 0.3916083159933529 -0.06816718571831408 0.0
H H 0.43339135348610436 0.32098831599335287 -0.07702718571831407 0.0
C C 0.2946880606445332 0.5187616036910625 -0.12169795973468531 0.0
C C 0.24595954527863229 0.4456716621861148 -0.24889489637950576 0.0
C C 0.3375291055466301 0.4090863829800626 -0.12803916043119162 0.0
C C 0.416932080374826 0.46804384807897703 0.006044450268928013 0.0
H H 0.459262080374826 0.447023848078977 0.051384450268928 0.0
O O 0.1674157998150926 0.5427185718177782 -0.3618088759059816 0.0
H H 0.19226579981509262 0.6017285718177783 -0.37776887590598157 0.0
C C 0.20586992996701317 0.4100320826599101 -0.3411095839468966 0.0
H H 0.22962992996701315 0.36774308265991007 -0.37924958394689656 0.0
C C 0.1401681767711845 0.3262052563833523 -0.33567975663982896 0.0
H H 0.06696526301045534 0.11104920734741532 0.06392312623787562 0.0
H H 0.06696526301045534 0.11104920734741532 0.06392312623787562 0.0
H H 0.15564817677118453 0.2308232563833523 -0.3070697566398291 0.0
H H 0.4362691582197172 0.9057726875670815 0.3069859736197159 0.0
Zn Zn -0.15324912731446103 -0.3107709593968342 -0.25896715001389237 0.0
Zn Zn -0.007532572567373599 -0.2562701753547386 -0.25690190022002163 0.0
O O -0.05008252915240981 -0.12195907272336985 -0.3347287442960272 0.0
O O -0.0679676432950705 -0.3562220624578442 -0.21685779795519972 0.0
O O -0.15492462585149286 -0.2394101612829491 -0.3839264839589033 0.0
N N -0.2693538448274918 -0.049841623044309495 -0.7043529443250096 0.0
N N -0.18770232362776174 0.11369785984591531 -0.7121552713386569 0.0
C C -0.19069211460964938 -0.07782880652787626 -0.5407586055479614 0.0
H H -0.22316211460964944 -0.14474880652787622 -0.5312186055479615 0.0
C C -0.11673141391854905 -0.15232567508168518 -0.39814218376338595 0.0
C C -0.1327267949964036 -0.05617201633111963 -0.4861252425683834 0.0
C C -0.10097735642408591 0.09991337144541333 -0.5739422413518257 0.0
H H -0.0695373564240859 0.17053337144541333 -0.5828022413518257 0.0
C C -0.21244187125202527 -0.01755499893864258 -0.6240256264764091 0.0
C C -0.25222297004135774 0.043608995554179165 -0.7535477079153411 0.0
C C -0.16234724504695652 0.06160641442338587 -0.6287714411463827 0.0
C C -0.08325253790503985 0.03180189527057608 -0.49658245213874685 0.0
H H -0.040922537905039864 0.05282189527057607 -0.4512424521387469 0.0
O O -0.3305567708012745 -0.05111773487907909 -0.8719684965258011 0.0
H H -0.3057067708012745 -0.1101277348790791 -0.8879284965258011 0.0
C C -0.2935956408100342 0.08518761250464763 -0.8366718294500658 0.0
H H -0.2698356408100342 0.12747661250464762 -0.8748118294500657 0.0
C C -0.36620275597541063 0.17725741543487164 -0.8379419244801524 0.0
H H 0.06696526301045534 0.11104920734741532 0.06392312623787562 0.0
H H 0.06696526301045534 0.11104920734741532 0.06392312623787562 0.0
H H -0.35072275597541064 0.2726394154348716 -0.8093319244801525 0.0
H H -0.06893764329507052 -0.3879020624578442 -0.18341779795519972 0.0
Zn Zn 0.1646206058688638 -0.3180001326166724 -0.23227124649507383 0.0
O O 0.05580379422700248 -0.10896469140499951 -0.1648729405347224 0.0
O O 0.06905358099626142 -0.38011342462382447 -0.2793156480292574 0.0
O O 0.1534217640054934 -0.24296229775418202 -0.11844912530288626 0.0
N N 0.2640310343098232 -0.03109349878517937 0.20194252241529864 0.0
N N 0.19076176828245098 0.11486319290390949 0.2223616625146693 0.0
C C 0.19789876325520722 -0.08415599941365252 0.03690635092558995 0.0
H H 0.2303687632552072 -0.15107599941365252 0.027366350925589956 0.0
C C 0.10907701797517941 -0.1467789672278009 -0.1083060008147747 0.0
C C 0.12412326002364776 -0.06346907639143747 -0.02934357124233525 0.0
C C 0.09993317867473141 0.12338248817110646 0.07388347604530687 0.0
H H 0.06849317867473141 0.19400248817110646 0.08274347604530685 0.0
C C 0.20876740569640845 -0.011422745860891894 0.1133420778878649 0.0
C C 0.25685583990077115 0.05256048322856929 0.2532007463397496 0.0
C C 0.1567540913491936 0.08120029882882089 0.12381071970224723 0.0
C C 0.08427347530063474 0.043919272070781015 -0.00758351241067187 0.0
H H 0.041943475300634726 0.06493927207078101 -0.052923512410671864 0.0
O O 0.338122685106511 -0.0482135228408605 0.3802762101991791 0.0
H H 0.31327268510651096 -0.10722352284086051 0.39623621019917915 0.0
C C 0.2985425916007108 0.06734217659118043 0.3399033234047967 0.0
H H 0.2747825916007108 0.10963117659118042 0.3780433234047966 0.0
C C 0.3733753015655698 0.16567934197642883 0.33926008632425103 0.0
H H 0.06696526301045534 0.11104920734741532 0.06392312623787562 0.0
H H 0.06696526301045534 0.11104920734741532 0.06392312623787562 0.0
H H 0.3578953015655698 0.26106134197642883 0.3106500863242511 0.0
H H 0.07002358099626142 -0.41179342462382446 -0.3127556480292574 0.0
Zn Zn 0.33991176671453566 0.19417809031308692 -0.2762914053449934 0.0
Zn Zn 0.5057258070102245 0.24273598556674528 -0.2539588160811315 0.0
O O 0.44518783859980166 0.39739546942013465 -0.34094880266478433 0.0
O O 0.43160640785323123 0.14983517225114884 -0.22416581177685108 0.0
O O 0.3394737513818745 0.260428306312528 -0.38020962151748716 0.0
N N 0.23509517823242496 0.4604324672586443 -0.6930122981398366 0.0
N N 0.3096429767881527 0.6155575332216291 -0.7192342699088945 0.0
C C 0.31076575930294 0.41426881074182426 -0.5371965344869242 0.0
H H 0.27829575930294004 0.3473488107418243 -0.5276565344869243 0.0
C C 0.37969360891310416 0.3742938733579812 -0.3946356101232938 0.0
C C 0.36376861869524574 0.44306610170013805 -0.4778005020524828 0.0
C C 0.4056917996378816 0.6177209349306242 -0.5584940230774299 0.0
H H 0.43713179963788146 0.6883409349306243 -0.5673540230774299 0.0
C C 0.29380332234156364 0.47128318474020825 -0.6241432274739359 0.0
C C 0.24357168598653897 0.5453861948037522 -0.757181474198731 0.0
C C 0.340757145480681 0.5619633511783441 -0.6299590879953012 0.0
C C 0.4193324730528115 0.5292519846580207 -0.48596272245964944 0.0
H H 0.4616624730528115 0.5502719846580206 -0.4406227224596495 0.0
O O 0.16424651297484633 0.43921485529635923 -0.8779073757440111 0.0
H H 0.1890965129748463 0.3802048552963591 -0.8938673757440112 0.0
C C 0.2013397514746607 0.5970366517774855 -0.8365967490328042 0.0
H H 0.2250997514746607 0.6393256517774856 -0.8747367490328042 0.0
C C 0.1249185981337046 0.6672012613569774 -0.844771102102497 0.0
H H 0.06696526301045534 0.11104920734741532 0.06392312623787562 0.0
H H 0.06696526301045534 0.11104920734741532 0.06392312623787562 0.0
H H 0.1403985981337046 0.7625832613569776 -0.816161102102497 0.0
H H 0.4306364078532313 0.11815517225114885 -0.1907258117768511 0.0
Zn Zn 0.6598358930638408 0.18993443927389642 -0.2349810070479278 0.0
O O 0.5586286956212408 0.38954711728124947 -0.16847814892712917 0.0
O O 0.5616275692423655 0.13739432863100765 -0.27396661815769485 0.0
O O 0.6544551149532266 0.26072508135276273 -0.11385224289411157 0.0
N N 0.7639549423348693 0.4658895386192352 0.19658955751295698 0.0
N N 0.6895618833555619 0.6292074677429902 0.21950570068547476 0.0
C C 0.6975049619693998 0.40438832155349724 0.04939084421458171 0.0
H H 0.7299749619693999 0.33746832155349726 0.03985084421458172 0.0
C C 0.6082117671923744 0.36057361655172776 -0.10332306036802925 0.0
C C 0.6344386694201141 0.4355234055220322 -0.026500677475658298 0.0
C C 0.5953884398190492 0.6063743028686004 0.05950544543148785 0.0
H H 0.5639484398190492 0.6769943028686004 0.06836544543148783 0.0
C C 0.7072177319228501 0.47121096072094915 0.12276527143919719 0.0
C C 0.7483799413376642 0.5398209014185709 0.2472460320136338 0.0
C C 0.669022688328237 0.5829488432995801 0.13608759267362042 0.0
C C 0.5919388477539836 0.5532382601681244 -0.0037450436492729748 0.0
H H 0.5496088477539837 0.5742582601681244 -0.049085043649272964 0.0
O O 0.8338973234971017 0.45409835188450465 0.3691566677626536 0.0
H H 0.8090473234971016 0.39508835188450464 0.38511666776265363 0.0
C C 0.7970515287605384 0.5858418214806883 0.33596781096503187 0.0
H H 0.7732915287605384 0.6281308214806882 0.3741078109650318 0.0
C C 0.8738891154486831 0.6911697046749536 0.3439539945543716 0.0
H H 0.06696526301045534 0.11104920734741532 0.06392312623787562 0.0
H H 0.06696526301045534 0.11104920734741532 0.06392312623787562 0.0
H H 0.8584091154486833 0.7865517046749537 0.3153439945543717 0.0
H H 0.5625975692423655 0.10571432863100762 -0.3074066181576949 0.0
