_cell_length_a 20.4364
_cell_length_b 9.005017
_cell_length_c 16.6723
_cell_angle_alpha 90.0
_cell_angle_beta 110.2303
_cell_angle_gamma 90.0
_symmetry_space_group_name_H-M         'P 1'
_symmetry_Int_Tables_number            1
loop_
_symmetry_equiv_pos_as_xyz
   'x, y, z'
                         
loop_
_atom_site_label
_atom_site_type_symbol
_atom_site_fract_x 
_atom_site_fract_y
_atom_site_fract_z
_atom_site_charge
Zn Zn 0.1614106763429105 0.3049148683601702 0.271616385108681 0.0
Zn Zn 0.0012901182167228333 0.26283727008250496 0.2535288149510562 0.0
O O 0.05771080675420132 0.11047130661009495 0.3428343598804414 0.0
O O 0.07246184944136397 0.36056631454715704 0.22254686898034937 0.0
O O 0.15882822234948468 0.22917593932466684 0.38492382800640396 0.0
N N 0.2653604541088667 0.03468086025892854 0.7030034299015044 0.0
N N 0.18965890230037394 -0.12667367705979646 0.718429280788864 0.0
C C 0.1922556573907476 0.09673574089412044 0.5340059952911684 0.0
H H 0.22472565739074762 0.1636557408941204 0.5244659952911686 0.0
C C 0.10815751045897495 0.14305180245082455 0.3888932100986796 0.0
C C 0.1337511834483672 0.055930435763799705 0.48309723314770786 0.0
C C 0.09551485725620476 -0.12409112291295467 0.5634802197622609 0.0
H H 0.06407485725620474 -0.19471112291295467 0.5723402197622609 0.0
C C 0.20935500889952166 0.03586342636428735 0.6192749443964283 0.0
C C 0.2495187215291197 -0.04265773170992002 0.7518515009577998 0.0
C C 0.16047963494961134 -0.06376026976377538 0.626386737956157 0.0
C C 0.084589637263953 -0.03384366413039713 0.4910214020381119 0.0
H H 0.042259637263952994 -0.054863664130397116 0.4456814020381119 0.0
O O 0.3379461631629126 0.05416285608482918 0.8713472534904552 0.0
H H 0.3130961631629126 0.11317285608482919 0.8873072534904551 0.0
C C 0.2966469377024617 -0.07399107140151313 0.8388986684244957 0.0
H H 0.2728869377024617 -0.11628007140151314 0.8770386684244956 0.0
C C 0.3642795883908758 -0.16327823373816214 0.842684424662884 0.0
H H 0.06696526301045534 0.11104920734741532 0.06392312623787562 0.0
H H 0.06696526301045534 0.11104920734741532 0.06392312623787562 0.0
H H 0.3487995883908758 -0.2586602337381621 0.814074424662884 0.0
H H 0.07343184944136398 0.392246314547157 0.18910686898034937 0.0
Zn Zn -0.15664038156577334 0.31192863746936816 0.2278213262135452 0.0
O O -0.0572948515907193 0.11112212180416998 0.1649414769711372 0.0
O O -0.06018931838394307 0.3512532455576732 0.28379506107391567 0.0
O O -0.1649069185509254 0.23129005495820998 0.11260700258432493 0.0
N N -0.2621904969675194 0.04464979356317674 -0.19369967008123082 0.0
N N -0.18560489383518722 -0.13482016609327563 -0.21578707083401716 0.0
C C -0.19846894538938145 0.0817438842156415 -0.04080787221435161 0.0
H H -0.23093894538938148 0.1486638842156415 -0.031267872214351615 0.0
C C -0.11498395991156844 0.13016630061677886 0.11414890819935554 0.0
C C -0.1289961878637823 0.04635926122604194 0.01821185564519034 0.0
C C -0.09676445270946077 -0.10075327271342555 -0.06626138051347892 0.0
H H -0.06532445270946076 -0.17137327271342553 -0.07512138051347891 0.0
C C -0.20406253609288358 0.03299608518631175 -0.12236785402257788 0.0
C C -0.24608567020601574 -0.05140839367328531 -0.24481521341944892 0.0
C C -0.16930301137889842 -0.08463505525561212 -0.13528463786008665 0.0
C C -0.08106097197780268 -0.04071506580199874 0.014444580479035955 0.0
H H -0.03873097197780268 -0.06173506580199872 0.05978458047903595 0.0
O O -0.3314254111357916 0.04987413168526337 -0.3684023647370954 0.0
H H -0.30657541113579156 0.10888413168526337 -0.3843623647370954 0.0
C C -0.29892960162986093 -0.07774225006064428 -0.33569096242746 0.0
H H -0.2751696016298609 -0.12003125006064426 -0.37383096242745995 0.0
C C -0.3641713165966773 -0.16551898273679078 -0.34317298518178324 0.0
H H 0.06696526301045534 0.11104920734741532 0.06392312623787562 0.0
H H 0.06696526301045534 0.11104920734741532 0.06392312623787562 0.0
H H -0.34869131659667735 -0.2609009827367908 -0.3145629851817834 0.0
H H -0.06115931838394306 0.38293324555767316 0.31723506107391575 0.0
Zn Zn 0.6583939973278242 0.8158743467601897 0.26487807564742755 0.0
Zn Zn 0.4997909011213283 0.7363762436748897 0.2545527769305743 0.0
O O 0.5581938551395198 0.6055957275218202 0.3447835292857897 0.0
O O 0.5616756585286694 0.8544977986706269 0.2153324841969165 0.0
O O 0.6598011958383845 0.7190541624780822 0.38949513606959424 0.0
N N 0.7583671279878597 0.5322306999423501 0.6936102113473674 0.0
N N 0.6886803638952829 0.35644744917536925 0.7209173904386594 0.0
C C 0.6987494201828215 0.5859658915671322 0.5451068474481503 0.0
H H 0.7312194201828216 0.6528858915671323 0.5355668474481504 0.0
C C 0.6210103409434663 0.6284045996982017 0.3993465608878279 0.0
C C 0.6311747979106982 0.5507807921755029 0.48079440004279184 0.0
C C 0.597691719408605 0.3940251667020586 0.5602625602935574 0.0
H H 0.5662517194086051 0.3234051667020586 0.5691225602935572 0.0
C C 0.7143301821250511 0.5242399872381973 0.6170068218587629 0.0
C C 0.7526070142814575 0.4364173948782247 0.7548342192198922 0.0
C C 0.6662273769674653 0.43334509066390625 0.6346137552775698 0.0
C C 0.5906408021332368 0.4636724324993498 0.49697756630896 0.0
H H 0.5483108021332367 0.44265243249934977 0.45163756630896 0.0
O O 0.8393711268558016 0.5440801092600765 0.8654663483846459 0.0
H H 0.8145211268558017 0.6030901092600766 0.8814263483846458 0.0
C C 0.8002586705280874 0.4106309445949513 0.8470795987482157 0.0
H H 0.7764986705280874 0.3683419445949513 0.8852195987482157 0.0
C C 0.865640438954137 0.32072135523877215 0.8397960335414498 0.0
H H 0.06696526301045534 0.11104920734741532 0.06392312623787562 0.0
H H 0.06696526301045534 0.11104920734741532 0.06392312623787562 0.0
H H 0.8501604389541372 0.22533935523877213 0.8111860335414499 0.0
H H 0.5626456585286695 0.8861777986706271 0.1818924841969165 0.0
Zn Zn 0.33796855489424865 0.8065960868743124 0.22998383113905546 0.0
O O 0.44046757359634553 0.6077154845615065 0.1598491200705394 0.0
O O 0.4389200053907022 0.8625749175582014 0.2789515083102741 0.0
O O 0.34948657637121916 0.7259191648477784 0.11951741650179233 0.0
N N 0.23924200439824408 0.5533072722496214 -0.18999997806288602 0.0
N N 0.30770453247645685 0.36134872001201596 -0.21019266316517443 0.0
C C 0.3025601345399559 0.6020938039180179 -0.04944010198956023 0.0
H H 0.27009013453995584 0.6690138039180179 -0.03990010198956024 0.0
C C 0.3899148236374912 0.6320664832859664 0.10256552605174941 0.0
C C 0.3631557664542842 0.5622776871805534 0.01742220071326668 0.0
C C 0.40088527487057785 0.3939812574785929 -0.07031061897429873 0.0
H H 0.4323252748705778 0.3233612574785929 -0.07917061897429871 0.0
C C 0.2906145532135807 0.5320989641360759 -0.126398757914286 0.0
C C 0.2512858538449881 0.4482750301213211 -0.24988853564727728 0.0
C C 0.3374099848994893 0.41697787974944267 -0.12463537808007757 0.0
C C 0.41334510426589205 0.4504715000786716 0.006495629014812884 0.0
H H 0.4556751042658921 0.42945150007867156 0.051835629014812874 0.0
O O 0.15848148530938208 0.5420130127610185 -0.36608372908317455 0.0
H H 0.1833314853093821 0.6010230127610185 -0.3820437290831745 0.0
C C 0.19904657589295746 0.40410049004311716 -0.3334461193218404 0.0
H H 0.22280657589295744 0.36181149004311713 -0.3715861193218403 0.0
C C 0.13683198751647044 0.32163569198011505 -0.33808333158322296 0.0
H H 0.06696526301045534 0.11104920734741532 0.06392312623787562 0.0
H H 0.06696526301045534 0.11104920734741532 0.06392312623787562 0.0
H H 0.15231198751647043 0.22625369198011505 -0.3094733315832231 0.0
H H 0.4379500053907022 0.8942549175582015 0.3123915083102741 0.0
Zn Zn -0.15403751354052353 -0.2966102175437668 -0.2644391062895327 0.0
Zn Zn 0.003965498012652777 -0.2423804894268307 -0.24449961787297841 0.0
O O -0.04989253071084141 -0.12083099528028743 -0.34061065427998943 0.0
O O -0.06577708143862962 -0.35207911428016847 -0.21295284836785336 0.0
O O -0.1648817843770882 -0.23180810454578255 -0.3831222796222951 0.0
N N -0.2689735645736524 -0.03314759009997165 -0.6908889828322343 0.0
N N -0.19839696287825784 0.13076680385713807 -0.7213400874718265 0.0
C C -0.1940068353845658 -0.09614271220755409 -0.5385101661193546 0.0
H H -0.22647683538456584 -0.16306271220755408 -0.5289701661193548 0.0
C C -0.12230306272998485 -0.14262545060320578 -0.3973703262245082 0.0
C C -0.1294199478959887 -0.05972167540251148 -0.469638071249833 0.0
C C -0.09577504019459704 0.12211973063164361 -0.5667614730878873 0.0
H H -0.064335040194597 0.19273973063164357 -0.5756214730878871 0.0
C C -0.20946246156656492 -0.019445119804181756 -0.626520755411198 0.0
C C -0.2486256414402743 0.039318351514163956 -0.7554502578633425 0.0
C C -0.1603123186852671 0.07232218763174295 -0.6384963390797761 0.0
C C -0.08994154629070679 0.041445025467618524 -0.48869215010669464 0.0
H H -0.047611546290706803 0.06246502546761852 -0.4433521501066947 0.0
O O -0.33522100485961576 -0.03858037582417378 -0.8753813714205466 0.0
H H -0.3103710048596157 -0.09759037582417376 -0.8913413714205467 0.0
C C -0.3013724318700509 0.07436846346097051 -0.8385259393794069 0.0
H H -0.2776124318700509 0.11665746346097051 -0.8766659393794067 0.0
C C -0.3635628375907631 0.16905210359740064 -0.8376394178990769 0.0
H H 0.06696526301045534 0.11104920734741532 0.06392312623787562 0.0
H H 0.06696526301045534 0.11104920734741532 0.06392312623787562 0.0
H H -0.34808283759076314 0.2644341035974006 -0.8090294178990769 0.0
H H -0.06674708143862963 -0.3837591142801685 -0.1795128483678534 0.0
Zn Zn 0.16531169389042996 -0.3062440932641218 -0.23589414374654166 0.0
O O 0.0536209059232055 -0.10827086995312954 -0.16777480278878548 0.0
O O 0.0609870256714055 -0.37627128752719863 -0.28101392592351654 0.0
O O 0.15051488097251037 -0.2143303289001202 -0.12189039937000774 0.0
N N 0.27056928158885957 -0.05452960641563116 0.19430071328009085 0.0
N N 0.1959420524185782 0.11918608239787641 0.21330759871481358 0.0
C C 0.1904137727051439 -0.08544592607200784 0.040772720903818685 0.0
H H 0.22288377270514395 -0.1523659260720078 0.031232720903818696 0.0
C C 0.1123838854837896 -0.1457943488172474 -0.1001681803366751 0.0
C C 0.13449397693224066 -0.07492808403123916 -0.020121084500373504 0.0
C C 0.10455940649636654 0.10202028868772196 0.07297866224151177 0.0
H H 0.07311940649636652 0.17264028868772197 0.08183866224151175 0.0
C C 0.21549085867799017 -0.026027560037898797 0.1194264800705228 0.0
C C 0.253918017994786 0.041071980421913144 0.24523540334004534 0.0
C C 0.1586681753577241 0.06731092728879436 0.13135080427659238 0.0
C C 0.08621959214458359 0.02852671577886109 -0.014134815429833653 0.0
H H 0.04388959214458361 0.04954671577886108 -0.05947481542983364 0.0
O O 0.33587012559923035 -0.04756722297695238 0.37980033332583857 0.0
H H 0.3110201255992303 -0.10657722297695238 0.39576033332583854 0.0
C C 0.2964088637147891 0.06828342610745394 0.3391838871326698 0.0
H H 0.272648863714789 0.11057242610745392 0.37732388713266973 0.0
C C 0.36244843274409383 0.17645594507759396 0.3437281491561573 0.0
H H 0.06696526301045534 0.11104920734741532 0.06392312623787562 0.0
H H 0.06696526301045534 0.11104920734741532 0.06392312623787562 0.0
H H 0.34696843274409384 0.271837945077594 0.3151181491561574 0.0
H H 0.061957025671405486 -0.4079512875271986 -0.31445392592351656 0.0
Zn Zn 0.33790535631722557 0.1980792271989381 -0.26797972311740154 0.0
Zn Zn 0.49756152840542184 0.23605048340629514 -0.25584416568928686 0.0
O O 0.4382342878438966 0.3941116643253437 -0.33742579583311494 0.0
O O 0.43268239677309256 0.13236311306873558 -0.2148667200206327 0.0
O O 0.33650770259128926 0.25736897706406175 -0.38400139761425367 0.0
N N 0.2349644645544073 0.4635066334473993 -0.6894696216024458 0.0
N N 0.3058417130584413 0.6240888022180582 -0.7154949751179144 0.0
C C 0.30474604073938405 0.41064936492315 -0.5353931100458629 0.0
H H 0.272276040739384 0.34372936492315004 -0.525853110045863 0.0
C C 0.3846719448849075 0.3647829711032522 -0.38984241396027375 0.0
C C 0.37202344119624137 0.43767459305232315 -0.46865130526783944 0.0
C C 0.4060763282738796 0.6138022737167134 -0.563373983997281 0.0
H H 0.4375163282738795 0.6844222737167134 -0.572233983997281 0.0
C C 0.28625458455595637 0.4601453299633694 -0.6248388833806675 0.0
C C 0.24555982176032037 0.5634989179336763 -0.7454806333875398 0.0
C C 0.3347378412622498 0.5709054648324843 -0.6334054778301457 0.0
C C 0.4139219656975345 0.5268231006192721 -0.48870238603591276 0.0
H H 0.45625196569753446 0.547843100619272 -0.44336238603591277 0.0
O O 0.1675618066091782 0.44084354751454635 -0.8637006963668916 0.0
H H 0.19241180660917817 0.3818335475145463 -0.8796606963668916 0.0
C C 0.20596982704813088 0.5890842214011272 -0.8370502886059009 0.0
H H 0.2297298270481309 0.6313732214011272 -0.8751902886059009 0.0
C C 0.12749040838950274 0.6642317894130099 -0.839385645094896 0.0
H H 0.06696526301045534 0.11104920734741532 0.06392312623787562 0.0
H H 0.06696526301045534 0.11104920734741532 0.06392312623787562 0.0
H H 0.14297040838950276 0.7596137894130099 -0.8107756450948961 0.0
H H 0.4317123967730926 0.10068311306873558 -0.18142672002063273 0.0
Zn Zn 0.6660222099458523 0.20642769885511925 -0.2301424930704824 0.0
O O 0.5535456947901344 0.39482330089684686 -0.16922838774266155 0.0
O O 0.5622908910507125 0.1278666106275109 -0.2890319381519085 0.0
O O 0.6565951545278734 0.26230214116993883 -0.1147430886318045 0.0
N N 0.7662686972576072 0.46599055403874573 0.18822298301731522 0.0
N N 0.6897291423260031 0.6415489203964931 0.2233307720534988 0.0
C C 0.6980667333056556 0.4190682358377358 0.04202680684676609 0.0
H H 0.7305367333056556 0.3521482358377358 0.032486806846766095 0.0
C C 0.6178420456023773 0.3759814257607546 -0.10047906712568022 0.0
C C 0.634798389940864 0.4478124062123843 -0.01773413733302833 0.0
C C 0.598209901997651 0.608813549046269 0.06523492977570447 0.0
H H 0.5667699019976511 0.6794335490462691 0.07409492977570445 0.0
C C 0.7022986756390556 0.4883405210907174 0.11917095492244979 0.0
C C 0.7467051018073024 0.5576176730873861 0.25496560741501906 0.0
C C 0.6600955251067337 0.5759407170905213 0.13303245828533494 0.0
C C 0.5826945716826226 0.5398245706464585 -0.004078806375996901 0.0
H H 0.5403645716826225 0.5608445706464584 -0.04941880637599689 0.0
O O 0.8380072989643791 0.4570012867480311 0.36541068670555477 0.0
H H 0.813157298964379 0.39799128674803097 0.38137068670555474 0.0
C C 0.7922663109296172 0.5706860603050878 0.33446394771680255 0.0
H H 0.7685063109296172 0.6129750603050877 0.3726039477168025 0.0
C C 0.8646930353471107 0.6822687751709519 0.33149297805369526 0.0
H H 0.06696526301045534 0.11104920734741532 0.06392312623787562 0.0
H H 0.06696526301045534 0.11104920734741532 0.06392312623787562 0.0
H H 0.8492130353471108 0.7776507751709519 0.3028829780536954 0.0
H H 0.5632608910507125 0.0961866106275109 -0.3224719381519085 0.0
