_cell_length_a 8.39304
_cell_length_b 22.23511
_cell_length_c 18.74218
_cell_angle_alpha 90.0
_cell_angle_beta 94.0312
_cell_angle_gamma 90.0
_symmetry_space_group_name_H-M         'P 1'
_symmetry_Int_Tables_number            1
loop_
_symmetry_equiv_pos_as_xyz
   'x, y, z'
                         
loop_
_atom_site_label
_atom_site_type_symbol
_atom_site_fract_x 
_atom_site_fract_y
_atom_site_fract_z
_atom_site_charge
Cd Cd 0.33192434968289236 0.554962996808959 0.9908688271416304 0.0
O O 0.4357780494401673 0.464082587504997 1.054524279812002 0.0
O O 0.19678638564741036 0.5080764919315534 1.0828608140035354 0.0
O O 0.8938873160970983 0.7732599231966308 1.156436363169946 0.0
O O 0.4268714589443339 0.7715848547200468 1.2605464472488115 0.0
N N 0.46597437897754457 0.6198843915199926 1.063581904291743 0.0
N N 0.6432347018812694 0.7554164385262737 1.1948796623816307 0.0
C C 0.32030893982204584 0.4617419123964709 1.0910638763025586 0.0
C C 0.2825871221153479 0.42569076571794356 1.146847194066498 0.0
C C 0.12859520386085146 0.4267547917525826 1.1755590698269143 0.0
H H 0.05368520386085143 0.4576147917525826 1.1629190698269143 0.0
C C 0.09969708113209612 0.37843379280998496 1.2377786273386284 0.0
H H 0.0007870811320960787 0.37899379280998496 1.2594386273386287 0.0
C C 0.2240740116695709 0.33774018487548596 1.2565298611773013 0.0
C C 0.37005518710701996 0.3387142001029244 1.222937408941688 0.0
C C 0.379914033422831 0.37467353757466026 1.1706606833429103 0.0
H H 0.47752403342283106 0.3726435375746603 1.1481306833429104 0.0
C C 0.5589221155023758 0.7851929244138355 1.252838011873704 0.0
C C 0.796493154887991 0.7821253493331985 1.1939288179635146 0.0
C C 0.5449196454863414 0.6647062114630693 1.0487777956040054 0.0
H H 0.5733296454863415 0.6619762114630695 1.0006477956040056 0.0
C C 0.614432904490338 0.7059301060482628 1.0822649271868334 0.0
H H 0.6852429044903381 0.7343001060482627 1.0637249271868334 0.0
C C 0.5898039734883319 0.7080232314882671 1.1472566025778141 0.0
C C 0.47116623763750676 0.6685111026451044 1.1854591724997654 0.0
H H 0.4428562376375068 0.6686811026451044 1.2336191724997656 0.0
C C 0.40694262313010254 0.6250810490312944 1.1360104299507552 0.0
H H 0.3334526231301026 0.5965510490312944 1.1523704299507553 0.0
O O 0.2845160809484505 0.6402706518697373 0.9031258041703897 0.0
O O 0.07944696877407258 0.627538761436784 0.9865043425449964 0.0
O O -0.15793463865329954 0.33809979836229187 0.7633746198410766 0.0
O O 0.33905175569961704 0.3756558819618348 0.6767185822791759 0.0
N N 0.11886766581030701 0.37257227834489026 0.7412152804006539 0.0
N N 0.23101343810065111 0.496817257777244 0.8912813608415183 0.0
C C 0.1431300770712846 0.6545587723463764 0.9321532282695958 0.0
C C 0.04127019199043636 0.702240409800101 0.9105526317731267 0.0
C C -0.11295232147645934 0.7215728992261914 0.9385862881435533 0.0
H H -0.14716232147645936 0.6968428992261915 0.9758462881435531 0.0
C C 0.17781242536652814 0.27012995614725055 0.5854189041676805 0.0
H H 0.27622242536652813 0.2789999561472506 0.5656789041676805 0.0
C C 0.1428344553580536 0.29811303333998324 0.6412795288729896 0.0
C C -0.010384646087217477 0.2930163035333617 0.6736798660478961 0.0
C C 0.08551444211827114 0.7435043070093674 0.8589991314305939 0.0
H H 0.1860044421182712 0.7360743070093674 0.8402591314305939 0.0
C C 0.21794000374908346 0.35798437490170865 0.6819872729207402 0.0
C C -0.01992317686539066 0.3338120517452852 0.7366071133360751 0.0
C C 0.259158350526481 0.5005610482597118 0.8266461445249003 0.0
H H 0.314678350526481 0.5363310482597119 0.8164161445249002 0.0
C C 0.24190121049985927 0.4649578903637651 0.7746613727954894 0.0
H H 0.27021121049985924 0.4734278903637651 0.7275213727954896 0.0
C C 0.14891169099243085 0.40749377652845026 0.7925375742769184 0.0
C C 0.09163431710765357 0.3987883970358486 0.8530365516936792 0.0
H H 0.03165431710765358 0.3643583970358486 0.8648965516936793 0.0
C C 0.1389444200692172 0.44288517920620785 0.9067553178221646 0.0
H H 0.10719442006921717 0.43626517920620783 0.9538353178221646 0.0
Cd Cd -0.31475304269614934 1.0533366544522411 -0.49333630546632495 0.0
O O -0.42363328345559353 0.9575252510865718 -0.5586023727091198 0.0
O O -0.1915295389506352 1.003509466275555 -0.5802359015442583 0.0
O O -0.8953725625234686 1.2711533812289446 -0.6554903359267467 0.0
O O -0.4035662249753571 1.2693278936097476 -0.7628952633686826 0.0
N N -0.46195715777170404 1.1198777980796786 -0.5728148270994823 0.0
N N -0.6246777226233029 1.258729105735714 -0.7065504512576669 0.0
C C -0.3164590918776963 0.9663077058558587 -0.5918765945996369 0.0
C C -0.26071062012970325 0.9205383339579406 -0.6463993040714412 0.0
C C -0.1321731494482959 0.9192658082825961 -0.6727229405658445 0.0
H H -0.05726314944829591 0.9501258082825963 -0.6600829405658445 0.0
C C -0.09858650787682859 0.8825086478474594 -0.7391562200637493 0.0
H H 0.0003234921231714349 0.8830686478474594 -0.7608162200637493 0.0
C C -0.20069932572937615 0.8379378757198809 -0.7524709152730771 0.0
C C -0.3556124491176947 0.8386388543532787 -0.7121873991583022 0.0
C C -0.37413203121147515 0.8800141721151233 -0.6621555376100183 0.0
H H -0.47174203121147523 0.8779841721151234 -0.6396255376100184 0.0
C C -0.5471218633867336 1.286027703547574 -0.7475709190902065 0.0
C C -0.7870093863505785 1.2851061895389797 -0.7040887342933281 0.0
C C -0.5720769643559008 1.1646877006187457 -0.5438858769689728 0.0
H H -0.600486964355901 1.1619577006187456 -0.49575587696897294 0.0
C C -0.6188204512118451 1.210229353170607 -0.580508330806061 0.0
H H -0.6896304512118452 1.238599353170607 -0.5619683308060609 0.0
C C -0.5972925906236771 1.2144385579965915 -0.6546102089616606 0.0
C C -0.471432860339879 1.1634315677114486 -0.6783041186552398 0.0
H H -0.44312286033987897 1.1636015677114486 -0.7264641186552397 0.0
C C -0.41629198856209965 1.1248996515737413 -0.6338226350306889 0.0
H H -0.34280198856209965 1.0963696515737413 -0.6501826350306891 0.0
O O -0.2646053433022758 1.1462669047823004 -0.4097477580412113 0.0
O O -0.09530510185550572 1.117711889576076 -0.48625426837712693 0.0
O O 0.13860464307845738 0.838053348642944 -0.270706461850442 0.0
O O -0.33728760937658187 0.8809140773069021 -0.17688856987284457 0.0
N N -0.11668656528513076 0.8727227487089552 -0.23027068203256168 0.0
N N -0.218778804096643 0.9952123196296749 -0.4042786034537321 0.0
C C -0.14605570391500783 1.154250817199208 -0.4324929922209067 0.0
C C -0.042041474757620115 1.2054419842361763 -0.4115278726102141 0.0
C C 0.11124771658765252 1.219662257966374 -0.438380899306114 0.0
H H 0.1454577165876525 1.1949322579663741 -0.475640899306114 0.0
C C -0.1884819920415971 0.7681890227530147 -0.09578084625556534 0.0
H H -0.28689199204159715 0.7770590227530147 -0.07604084625556536 0.0
C C -0.13542423891972702 0.795880251215555 -0.13958517154858813 0.0
C C 0.0077862464817240705 0.7871466596623776 -0.1757826307491006 0.0
C C -0.09042833621147119 1.2413404484407586 -0.34639129272796976 0.0
H H -0.19091833621147117 1.2339104484407586 -0.3276512927279698 0.0
C C -0.21089032986282455 0.8525929590290565 -0.18158840801856294 0.0
C C 0.03303957674500661 0.8367517476731263 -0.23063002406080912 0.0
C C -0.2777001207714303 1.0034323689416036 -0.3326569514233275 0.0
H H -0.33322012077143026 1.0392023689416037 -0.3224269514233276 0.0
C C -0.2277222817471369 0.9671251339538334 -0.2656351401332286 0.0
H H -0.2560322817471369 0.9755951339538333 -0.21849514013322863 0.0
C C -0.13735649826145688 0.9139486367779456 -0.2938388254871638 0.0
C C -0.090904790731305 0.9008576480022318 -0.36545718142639216 0.0
H H -0.030924790731305003 0.8664276480022319 -0.3773171814263922 0.0
C C -0.15539704495810217 0.9466003225396031 -0.40638110048336784 0.0
H H -0.12364704495810215 0.9399803225396031 -0.45346110048336774 0.0
Cd Cd -0.30595952487441364 -0.5577300940969151 -0.9926100312985591 0.0
O O -0.4439738557056468 -0.46354192451524817 -1.0607375738375797 0.0
O O -0.2077780340064326 -0.5036083554209392 -1.0747909011147887 0.0
O O -0.9031897096740626 -0.7669044426256263 -1.1593226225327689 0.0
O O -0.4081634903111641 -0.7765145835388283 -1.2656564358440865 0.0
N N -0.4523055952253323 -0.6226495941730932 -1.060085873962522 0.0
N N -0.6569694143304147 -0.7562109398626773 -1.1957271631878568 0.0
C C -0.2925556246880881 -0.46772294184050844 -1.0875747007061392 0.0
C C -0.27840492082063506 -0.41837824245051153 -1.1396889138574604 0.0
C C -0.11907257425817949 -0.4224655269252619 -1.1857777756441767 0.0
H H -0.04416257425817944 -0.45332552692526196 -1.1731377756441765 0.0
C C -0.08646495626793353 -0.3764803084903606 -1.228123280956726 0.0
H H 0.012445043732066485 -0.37704030849036063 -1.2497832809567262 0.0
C C -0.21772029713693974 -0.33850243757738513 -1.2529544269908963 0.0
C C -0.35225267891439077 -0.34089243949505865 -1.2174504654306617 0.0
C C -0.39684739173722494 -0.3806679983004423 -1.170045725136311 0.0
H H -0.4944573917372251 -0.37863799830044226 -1.1475157251363108 0.0
C C -0.5467903333411802 -0.7858480614891741 -1.259436096439151 0.0
C C -0.8010487958055492 -0.7894136426233886 -1.1994405023115124 0.0
C C -0.56647841990787 -0.6610950497322196 -1.0360535271625657 0.0
H H -0.59488841990787 -0.6583650497322198 -0.9879235271625658 0.0
C C -0.6183417367361226 -0.7098349918591601 -1.0872382958916076 0.0
H H -0.6891517367361226 -0.73820499185916 -1.0686982958916076 0.0
C C -0.5667043570134019 -0.7131259067608355 -1.1548404971878665 0.0
C C -0.46530732854278367 -0.6720069060778777 -1.179874903729469 0.0
H H -0.4369973285427837 -0.6721769060778777 -1.2280349037294689 0.0
C C -0.4265928984157496 -0.6240541622607654 -1.1399990493793484 0.0
H H -0.3531028984157496 -0.5955241622607654 -1.1563590493793485 0.0
O O -0.255018205755083 -0.6376102266414744 -0.9065422351755441 0.0
O O -0.10820061130120856 -0.6244065122487072 -0.9913268858975564 0.0
O O 0.14110979709724777 -0.3410067961542175 -0.7704523927802077 0.0
O O -0.35314488429262847 -0.37483581035778035 -0.6744096017286476 0.0
N N -0.1029412641449098 -0.3723631232009564 -0.7370132182137659 0.0
N N -0.22551179807633634 -0.49588411539699734 -0.8981311674451165 0.0
C C -0.15137167121893663 -0.6511624809732268 -0.9429237170991 0.0
C C -0.03856880285079685 -0.7077018043208813 -0.9045176765495447 0.0
C C 0.10684407069933376 -0.7150018979714102 -0.9332560818093262 0.0
H H 0.14105407069933376 -0.6902718979714103 -0.970516081809326 0.0
C C -0.19075384876960189 -0.26618148779012996 -0.58409072417893 0.0
H H -0.2891638487696019 -0.27505148779012994 -0.5643507241789301 0.0
C C -0.12171782413120705 -0.2973276413863848 -0.6478272525158423 0.0
C C -0.004282508614933195 -0.287663302742293 -0.6690999679402783 0.0
C C -0.10077267455241365 -0.7460344712032293 -0.8530761291859377 0.0
H H -0.2012626745524137 -0.7386044712032293 -0.8343361291859377 0.0
C C -0.20094451054381535 -0.3543054075862649 -0.6855386978417568 0.0
C C 0.01605691578175828 -0.33602751117411916 -0.7263328418032938 0.0
C C -0.271851416776828 -0.5036440953328022 -0.8245098433983546 0.0
H H -0.32737141677682796 -0.5394140953328023 -0.8142798433983547 0.0
C C -0.22327557145327542 -0.4668289683147069 -0.7691917320304423 0.0
H H -0.2515855714532754 -0.47529896831470686 -0.7220517320304424 0.0
C C -0.15029108898108942 -0.41697384664003206 -0.7918567525803323 0.0
C C -0.08593863631649153 -0.4017947734800495 -0.8638575201918989 0.0
H H -0.02595863631649155 -0.36736477348004953 -0.8757175201918991 0.0
C C -0.1365817481092191 -0.44198666305901085 -0.9105901144349167 0.0
H H -0.10483174810921908 -0.43536666305901084 -0.9576701144349167 0.0
Cd Cd 0.3319781147548537 -1.0611453296996902 0.4856858339305687 0.0
O O 0.43927089762477506 -0.957253026287892 0.5489457344059981 0.0
O O 0.21261949932958576 -1.0072545453814654 0.5736514290154003 0.0
O O 0.8833749832097383 -1.2739784673692083 0.6568973886131906 0.0
O O 0.4099850149303365 -1.2736987342744714 0.7658823711402497 0.0
N N 0.451961175661762 -1.1201938086379821 0.5640337189653626 0.0
N N 0.6493573719454292 -1.2520352074621153 0.705082145885693 0.0
C C 0.3192277784834973 -0.9692728528713646 0.5908617922576833 0.0
C C 0.2722063307977516 -0.9225634125500993 0.641124390702268 0.0
C C 0.11570801575730973 -0.9198886939079285 0.682102345787935 0.0
H H 0.040798015757309736 -0.9507486939079287 0.6694623457879351 0.0
C C 0.08197550386936363 -0.8812412801137497 0.732855426210675 0.0
H H -0.016934496130636387 -0.8818012801137497 0.754515426210675 0.0
C C 0.20438616003811824 -0.8414284423219515 0.7492449434217959 0.0
C C 0.36724274281209396 -0.8320585592643358 0.7137852644345499 0.0
C C 0.3922785196813234 -0.8778881522001819 0.6722036945324321 0.0
H H 0.4898885196813235 -0.8758581522001819 0.6496736945324321 0.0
C C 0.56034205657066 -1.2873512540882712 0.7534701388551557 0.0
C C 0.803052096672267 -1.2878390106298645 0.694635391273575 0.0
C C 0.545924987183104 -1.165293404077 0.5437156693874484 0.0
H H 0.5743349871831042 -1.1625634040769999 0.4955856693874486 0.0
C C 0.6351426875951054 -1.2097864606730175 0.5828612392533596 0.0
H H 0.7059526875951055 -1.2381564606730175 0.5643212392533595 0.0
C C 0.5792352386565319 -1.2108298017863308 0.6608363692794301 0.0
C C 0.47833683670233174 -1.1694741626954743 0.680348607182237 0.0
H H 0.4500268367023317 -1.1696441626954743 0.7285086071822369 0.0
C C 0.40273980320332076 -1.1227965486266163 0.6317173865709981 0.0
H H 0.32924980320332076 -1.0942665486266163 0.6480773865709983 0.0
O O 0.26854560555419293 -1.13772257318303 0.4017363636677664 0.0
O O 0.08193011970779206 -1.1172511321117746 0.48652601062735934 0.0
O O -0.14333737249482728 -0.8426953885357938 0.26124917969470507 0.0
O O 0.3527148528217564 -0.8753401463335433 0.18050312460724596 0.0
N N 0.09664311785554246 -0.8694648894775238 0.23067436773786384 0.0
N N 0.21780262136943912 -0.9987236209488003 0.3911138268323907 0.0
C C 0.14090593520769454 -1.1505558015661088 0.43559735597695637 0.0
C C 0.03330853459793722 -1.2073741640765985 0.4123114002493853 0.0
C C -0.09364482134851077 -1.2138330909828001 0.4351973620187546 0.0
H H -0.12785482134851073 -1.1891030909828002 0.47245736201875455 0.0
C C 0.2108611178596995 -0.7686666823474031 0.09394575467677359 0.0
H H 0.3092711178596995 -0.7775366823474031 0.07420575467677361 0.0
C C 0.15015094472001497 -0.7979387723924973 0.14425801227998233 0.0
C C -0.007029107919929461 -0.7923315943880798 0.17332495015884486 0.0
C C 0.10969159028345642 -1.2408867693004808 0.36073117181008685 0.0
H H 0.2101815902834564 -1.233456769300481 0.34199117181008687 0.0
C C 0.21989120591575215 -0.854016150796228 0.19052501907967553 0.0
C C -0.040915326995779336 -0.828576527374213 0.23449752940797244 0.0
C C 0.2611371478104364 -0.9994584570483842 0.3241249707729601 0.0
H H 0.3166571478104364 -1.0352284570483843 0.31389497077296014 0.0
C C 0.23998310618971447 -0.9635071765420906 0.2707958427814292 0.0
H H 0.26829310618971447 -0.9719771765420906 0.22365584278142925 0.0
C C 0.14656278214916368 -0.9076511863365727 0.2895886395641849 0.0
C C 0.09791230380866023 -0.9008947870949399 0.3641606624683349 0.0
H H 0.037932303808660243 -0.86646478709494 0.37602066246833493 0.0
C C 0.14643649513157153 -0.9390068074447311 0.4074268243274506 0.0
H H 0.1146864951315715 -0.932386807444731 0.45450682432745054 0.0
