_cell_length_a 8.39304
_cell_length_b 22.23511
_cell_length_c 18.74218
_cell_angle_alpha 90.0
_cell_angle_beta 94.0312
_cell_angle_gamma 90.0
_symmetry_space_group_name_H-M         'P 1'
_symmetry_Int_Tables_number            1
loop_
_symmetry_equiv_pos_as_xyz
   'x, y, z'
                         
loop_
_atom_site_label
_atom_site_type_symbol
_atom_site_fract_x 
_atom_site_fract_y
_atom_site_fract_z
_atom_site_charge
Cd Cd 0.3277339440282073 0.550885335319136 0.9914276284203348 0.0
O O 0.4140479002963166 0.45951386198508914 1.0569733874207248 0.0
O O 0.21030692644624513 0.5007932447536295 1.0735813574161615 0.0
O O 0.8875833414019061 0.7721863147007961 1.1616159301763496 0.0
O O 0.40096242850520625 0.7740678840138315 1.2621692098898305 0.0
N N 0.4628605039635195 0.6273095931586039 1.0591392378018272 0.0
N N 0.6299570364736286 0.7548355642667967 1.1929450085904418 0.0
C C 0.3165454108384625 0.46034740746672265 1.0883972896758771 0.0
C C 0.2649590962325923 0.42660096523058183 1.1456436696472971 0.0
C C 0.14484957684233413 0.42130920760117146 1.1793939190646618 0.0
H H 0.06993957684233408 0.4521692076011715 1.1667539190646616 0.0
C C 0.10121811051860086 0.38615603280397204 1.2299664567033548 0.0
H H 0.0023081105186008536 0.38671603280397204 1.2516264567033548 0.0
C C 0.2036584457669705 0.3437967876557027 1.2436062797674972 0.0
C C 0.3534061727722836 0.33763609181014237 1.2208036544148047 0.0
C C 0.38950859342992716 0.37490285401226997 1.1721298970803662 0.0
H H 0.48711859342992725 0.37287285401227 1.1495998970803663 0.0
C C 0.5373885757766229 0.7822983013394066 1.2503661364647052 0.0
C C 0.783462530650858 0.7871844366156326 1.2051697398809365 0.0
C C 0.5547681508842662 0.6613652416214827 1.0457770072844914 0.0
H H 0.5831781508842663 0.6586352416214828 0.9976470072844915 0.0
C C 0.6091580458561233 0.7028808028344626 1.0829825564035918 0.0
H H 0.6799680458561235 0.7312508028344625 1.0644425564035918 0.0
C C 0.5935105573060081 0.7070861627021889 1.1485047897084064 0.0
C C 0.48141749949867135 0.6652975097405223 1.1764779629733346 0.0
H H 0.45310749949867135 0.6654675097405223 1.2246379629733348 0.0
C C 0.40142622826826735 0.6285378204054134 1.12572859758817 0.0
H H 0.32793622826826735 0.6000078204054133 1.1420885975881698 0.0
O O 0.28456163719195254 0.6471920901007446 0.912167625983625 0.0
O O 0.09249216580413402 0.6226380657829375 0.9894511840448167 0.0
O O -0.15594845702079488 0.3437251177838235 0.7687070729718989 0.0
O O 0.3417553251287386 0.3799602863514349 0.6764008761743405 0.0
N N 0.10256756547652447 0.36344620026037716 0.7352689686627129 0.0
N N 0.21444090467197535 0.49431225240727483 0.8904612052821431 0.0
C C 0.12882637070755731 0.6490265764694619 0.9324133250958622 0.0
C C 0.027977944342357113 0.7059678160736834 0.903644760463292 0.0
C C -0.08789405705242573 0.7236338389039574 0.9368008938402076 0.0
H H -0.12210405705242572 0.6989038389039575 0.9740608938402074 0.0
C C 0.18232022075911647 0.26331411244251846 0.5909009604580095 0.0
H H 0.28073022075911647 0.27218411244251844 0.5711609604580096 0.0
C C 0.1330792947302443 0.29678878759307903 0.6410788000896996 0.0
C C 0.00992089957887272 0.28440439319008237 0.6698640441991381 0.0
C C 0.09841592635004623 0.7468833382597877 0.8474764163219627 0.0
H H 0.19890592635004625 0.7394533382597878 0.8287364163219627 0.0
C C 0.20197569221908093 0.3468581637988075 0.6801312330242462 0.0
C C -0.021528583059128796 0.33467944378295145 0.7221678605931628 0.0
C C 0.249634636698071 0.5100177824994521 0.8288794849967019 0.0
H H 0.30515463669807097 0.5457877824994521 0.818649484996702 0.0
C C 0.2218792021082984 0.4676771413942979 0.7752892830973459 0.0
H H 0.25018920210829837 0.47614714139429787 0.728149283097346 0.0
C C 0.14707848729988923 0.4098261128242811 0.7836273211293872 0.0
C C 0.08921645429154593 0.4059008104873332 0.861829882830699 0.0
H H 0.02923645429154594 0.37147081048733316 0.873689882830699 0.0
C C 0.15171799458164822 0.44171218949776 0.9156892215068975 0.0
H H 0.1199679945816482 0.4350921894977599 0.9627692215068975 0.0
Cd Cd -0.3288421809903858 1.0597093410387461 -0.4909347843046465 0.0
O O -0.4288064696945766 0.9584766536388055 -0.5504476079630181 0.0
O O -0.20932380493578034 1.0042265734642497 -0.5790943248485603 0.0
O O -0.8841329996965192 1.2710577868951938 -0.657119139296237 0.0
O O -0.40315097899922464 1.2770240292666413 -0.7584841405514763 0.0
N N -0.4503361579695562 1.1188771648843667 -0.5580465259748528 0.0
N N -0.634729430602653 1.26397942231959 -0.6985064644333884 0.0
C C -0.31487004210430397 0.9639033975099722 -0.5868735130130175 0.0
C C -0.27022003774644576 0.9194717960899228 -0.6424466083447916 0.0
C C -0.11758324452829716 0.9192034135901372 -0.6734965486462291 0.0
H H -0.042673244528297155 0.9500634135901375 -0.6608565486462291 0.0
C C -0.1079966767863246 0.878266997682693 -0.7246857273583975 0.0
H H -0.009086676786324578 0.878826997682693 -0.7463457273583974 0.0
C C -0.21823150580943992 0.8311753709234785 -0.7460319724103129 0.0
C C -0.33850695782207024 0.8356279651411278 -0.7115247969548825 0.0
C C -0.4027467204378867 0.8768193531500326 -0.6734014307284192 0.0
H H -0.5003567204378868 0.8747893531500326 -0.6508714307284192 0.0
C C -0.5608718483670662 1.290011679573934 -0.7480332842812132 0.0
C C -0.8025654044606645 1.2839160820093458 -0.7023694717771187 0.0
C C -0.5736303247960848 1.1570389522971423 -0.546993140164982 0.0
H H -0.6020403247960849 1.1543089522971421 -0.4988631401649822 0.0
C C -0.6211010140549137 1.2135530867237188 -0.5836312032007922 0.0
H H -0.6919110140549138 1.2419230867237188 -0.5650912032007921 0.0
C C -0.5909368880150409 1.2035855692484811 -0.6613105327885083 0.0
C C -0.4624936972743145 1.1699070542099037 -0.6796916197645018 0.0
H H -0.43418369727431444 1.1700770542099037 -0.7278516197645017 0.0
C C -0.41888949695526967 1.1260146802516122 -0.6289615325623389 0.0
H H -0.3453994969552696 1.0974846802516123 -0.645321532562339 0.0
O O -0.25773066050178456 1.1475443397837763 -0.4086277811316218 0.0
O O -0.0821167237321601 1.1260597805483752 -0.4798343071822716 0.0
O O 0.12745688736360894 0.8399675174430641 -0.2595150656547927 0.0
O O -0.33607256252258133 0.8710250685261408 -0.16997446461665977 0.0
N N -0.10090133028663853 0.8714732002753148 -0.2356983612828032 0.0
N N -0.21198976638980058 0.994969589252937 -0.3922021505522395 0.0
C C -0.1350757678927182 1.1549846211697692 -0.44365677582116847 0.0
C C -0.05180438971595362 1.2114134552228983 -0.4067138513500292 0.0
C C 0.10330842635808848 1.224878544933297 -0.44046914658054453 0.0
H H 0.13751842635808847 1.2001485449332971 -0.47772914658054455 0.0
C C -0.19995500676826858 0.7624345090816812 -0.08797916441877278 0.0
H H -0.2983650067682686 0.7713045090816812 -0.0682391644187728 0.0
C C -0.13010638741519542 0.7980778767587219 -0.14215221548123735 0.0
C C -0.012220657631781838 0.7909489460614322 -0.1777261342481132 0.0
C C -0.1180882695578702 1.2457533467730166 -0.3588968103854052 0.0
H H -0.21857826955787021 1.2383233467730168 -0.34015681038540524 0.0
C C -0.2262074177745912 0.8550777586891378 -0.17886207903607731 0.0
C C 0.027943107940858147 0.8306815459000924 -0.22790958258973057 0.0
C C -0.24985004881219824 1.0090346671548138 -0.3223601032355413 0.0
H H -0.3053700488121983 1.044804667154814 -0.31213010323554136 0.0
C C -0.2406515083089709 0.968453274736593 -0.26971176007874204 0.0
H H -0.2689615083089709 0.976923274736593 -0.22257176007874205 0.0
C C -0.14714772768028556 0.9070123389765335 -0.2850505446798167 0.0
C C -0.0987591666137799 0.9038847998649354 -0.35672506312847824 0.0
H H -0.03877916661377989 0.8694547998649355 -0.3685850631284782 0.0
C C -0.14093933649211748 0.9413632989939481 -0.40303328616304224 0.0
H H -0.10918933649211748 0.934743298993948 -0.45011328616304225 0.0
Cd Cd -0.3163431154423069 -0.5561129964546727 -0.9869476629882509 0.0
O O -0.43958860229710717 -0.46556999247678427 -1.0542973729752312 0.0
O O -0.1917373432519312 -0.5058180417434368 -1.072290795576333 0.0
O O -0.888955314499597 -0.769336820481616 -1.1605085452617105 0.0
O O -0.4066920997972272 -0.7685798518097078 -1.2708827218828052 0.0
N N -0.4632128385447117 -0.6196820976357222 -1.0704575604409825 0.0
N N -0.6338406004603826 -0.7518868119423772 -1.1931396714033269 0.0
C C -0.30920200937235315 -0.47094294908497597 -1.0933454067583583 0.0
C C -0.28853773576798564 -0.419862927452192 -1.155042305049978 0.0
C C -0.12326728627769788 -0.42164923429798695 -1.1794750517553436 0.0
H H -0.04835728627769783 -0.45250923429798695 -1.1668350517553436 0.0
C C -0.10397495821461365 -0.3785368249326173 -1.2283530377907794 0.0
H H -0.005064958214613633 -0.3790968249326173 -1.2500130377907794 0.0
C C -0.21183926622083496 -0.3336755789531621 -1.2544342342805956 0.0
C C -0.3418930142520664 -0.3326022494650537 -1.2221042936841107 0.0
C C -0.38237963823095145 -0.3733074816094636 -1.1713176974219885 0.0
H H -0.4799896382309516 -0.3712774816094636 -1.1487876974219886 0.0
C C -0.5400316871217369 -0.7917486869805005 -1.2453087660335376 0.0
C C -0.7947570145274763 -0.7872470711497999 -1.1931879534324346 0.0
C C -0.5591598233994656 -0.6617655728044889 -1.0497147114363745 0.0
H H -0.5875698233994656 -0.6590355728044891 -1.0015847114363747 0.0
C C -0.6123273783919226 -0.7114224592682897 -1.0837728553038362 0.0
H H -0.6831373783919227 -0.7397924592682896 -1.0652328553038362 0.0
C C -0.593533455726278 -0.7135130801275155 -1.154869325300909 0.0
C C -0.4790515168057185 -0.6624237124220447 -1.179596548047379 0.0
H H -0.4507415168057185 -0.6625937124220447 -1.2277565480473789 0.0
C C -0.42443788361722706 -0.6275859306568174 -1.139994389303572 0.0
H H -0.350947883617227 -0.5990559306568174 -1.156354389303572 0.0
O O -0.28806029675812034 -0.6408437424357695 -0.9075705889718629 0.0
O O -0.08651504009489219 -0.6296510805657015 -0.9804422243220721 0.0
O O 0.14369561226437932 -0.3349299193576937 -0.7558178942643441 0.0
O O -0.33115644716359993 -0.37879394362041374 -0.6799633085445043 0.0
N N -0.12058606251135388 -0.3671186315402095 -0.7352101464447132 0.0
N N -0.20835357516036201 -0.4941622411359378 -0.8983165451767248 0.0
C C -0.12645317615176854 -0.6501608196896433 -0.9393447535601566 0.0
C C -0.03176429620355432 -0.7113840097024677 -0.908708883535339 0.0
C C 0.11093296011897805 -0.7226462314626211 -0.9315947957600828 0.0
H H 0.14514296011897806 -0.697916231462621 -0.9688547957600826 0.0
C C -0.19609663763047747 -0.2624115580518495 -0.5817683767880854 0.0
H H -0.29450663763047746 -0.27128155805184956 -0.5620283767880854 0.0
C C -0.13687798573569687 -0.2963626172842106 -0.6421073601336306 0.0
C C -0.0037603031454861834 -0.29272358536254967 -0.6761403622712252 0.0
C C -0.09933987528177593 -0.7423855924343833 -0.8582192954916744 0.0
H H -0.19982987528177595 -0.7349555924343832 -0.8394792954916744 0.0
C C -0.20165492744031646 -0.3529003423240868 -0.6799237993600189 0.0
C C 0.026491252495117943 -0.33182970030316195 -0.7271651567204266 0.0
C C -0.2567591652365228 -0.5012209277672249 -0.8268676596014582 0.0
H H -0.3122791652365228 -0.536990927767225 -0.8166376596014582 0.0
C C -0.2161973461562406 -0.4580578340052726 -0.7739118238276185 0.0
H H -0.24450734615624062 -0.4665278340052726 -0.7267718238276185 0.0
C C -0.153562472566691 -0.4143202025918321 -0.7883084382217312 0.0
C C -0.1128689457073384 -0.40083187181745983 -0.86548092004338 0.0
H H -0.0528889457073384 -0.36640187181745987 -0.87734092004338 0.0
C C -0.14031009355846777 -0.45127476211163847 -0.906966151004029 0.0
H H -0.10856009355846774 -0.44465476211163846 -0.954046151004029 0.0
Cd Cd 0.30407953867919096 -1.0525726181543074 0.4809619449954646 0.0
O O 0.4180604936725961 -0.9639568807169145 0.5577930192048157 0.0
O O 0.2126707335469868 -0.9999126323892508 0.5767153239883861 0.0
O O 0.9066752205681166 -1.2714244576374598 0.6688090759424502 0.0
O O 0.42502337382840527 -1.2675924098128528 0.7611896862674109 0.0
N N 0.4410774228996335 -1.1149050940872955 0.5646203889797122 0.0
N N 0.6327720507638515 -1.252843365289329 0.696528298589692 0.0
C C 0.3070203687604056 -0.9675266956314258 0.5927149886812833 0.0
C C 0.27254076701058233 -0.9139444912493592 0.6532057427528568 0.0
C C 0.12218817887077876 -0.9271702153115347 0.673864189680315 0.0
H H 0.04727817887077877 -0.9580302153115349 0.661224189680315 0.0
C C 0.11010196546253884 -0.8786022349887438 0.7280043404658484 0.0
H H 0.011191965462538818 -0.8791622349887438 0.7496643404658484 0.0
C C 0.2062628331015124 -0.8344144352253858 0.7471779404464495 0.0
C C 0.3481040866080928 -0.8299133424344509 0.7222841611044014 0.0
C C 0.4001837365452558 -0.8732922637200852 0.6604221642758169 0.0
H H 0.49779373654525594 -0.8712622637200852 0.6378921642758169 0.0
C C 0.5559010832793662 -1.287090960407358 0.7560459507298861 0.0
C C 0.775882899688881 -1.2858496738185188 0.6956098712382076 0.0
C C 0.543728796640186 -1.1619470838109678 0.5469206875330169 0.0
H H 0.5721387966401861 -1.1592170838109677 0.4987906875330171 0.0
C C 0.640454540512717 -1.204693490255416 0.5898564669711371 0.0
H H 0.711264540512717 -1.2330634902554163 0.571316466971137 0.0
C C 0.5764625778729008 -1.2053457904705602 0.6477146448912676 0.0
C C 0.4803059854738041 -1.1623522522969834 0.6737335741255135 0.0
H H 0.45199598547380404 -1.1625222522969834 0.7218935741255134 0.0
C C 0.42501580120529475 -1.1209284361828127 0.6274234588507929 0.0
H H 0.3515258012052947 -1.0923984361828127 0.643783458850793 0.0
O O 0.2602903804655544 -1.1407629199997886 0.4149996577975285 0.0
O O 0.08285400715065365 -1.1250401661356637 0.4807019606956361 0.0
O O -0.14329741912853894 -0.8345567746315019 0.2644969204074652 0.0
O O 0.35890584974561185 -0.8773477240424389 0.16993937692495437 0.0
N N 0.09609367343066977 -0.8706901225757725 0.24173195256986593 0.0
N N 0.2067256635654033 -1.0001851066216154 0.39340565230638364 0.0
C C 0.1352728619691372 -1.1597226693635707 0.4306184391882314 0.0
C C 0.04423288574759671 -1.2028512431340692 0.41318820017917884 0.0
C C -0.09384655914949716 -1.2181395152946615 0.4323860334645823 0.0
H H -0.12805655914949715 -1.1934095152946615 0.46964603346458234 0.0
C C 0.20562682386698675 -0.7644821021482792 0.08726469119945186 0.0
H H 0.3040368238669867 -0.7733521021482792 0.06752469119945188 0.0
C C 0.15242422624978053 -0.7950569056879631 0.14580840267207398 0.0
C C 0.007776550671853333 -0.7941234518664552 0.17243098538848756 0.0
C C 0.09446277287004895 -1.242858409181015 0.3473929264074519 0.0
H H 0.19495277287004895 -1.2354284091810153 0.3286529264074519 0.0
C C 0.22464738240723933 -0.8485756966345108 0.1897238179494564 0.0
C C -0.038940503325443576 -0.8392540925684433 0.22409263922961173 0.0
C C 0.27599648311406005 -1.0038815072562233 0.33066709107411546 0.0
H H 0.33151648311406 -1.0396515072562234 0.32043709107411555 0.0
C C 0.22474470452484083 -0.971119979092467 0.2782634902702634 0.0
H H 0.25305470452484086 -0.9795899790924669 0.23112349027026344 0.0
C C 0.13280404884705924 -0.911106101527242 0.2864723068277288 0.0
C C 0.08448969022056677 -0.9040321549230077 0.3605192338255334 0.0
H H 0.024509690220566763 -0.8696021549230079 0.37237923382553345 0.0
C C 0.13414567799225385 -0.9496729115244736 0.40647394740897475 0.0
H H 0.10239567799225385 -0.9430529115244736 0.45355394740897464 0.0
