_cell_length_a 8.39304
_cell_length_b 22.23511
_cell_length_c 18.74218
_cell_angle_alpha 90.0
_cell_angle_beta 94.0312
_cell_angle_gamma 90.0
_symmetry_space_group_name_H-M         'P 1'
_symmetry_Int_Tables_number            1
loop_
_symmetry_equiv_pos_as_xyz
   'x, y, z'
                         
loop_
_atom_site_label
_atom_site_type_symbol
_atom_site_fract_x 
_atom_site_fract_y
_atom_site_fract_z
_atom_site_charge
Cd Cd 0.3048832857044408 0.5586544602939703 0.9931774479288469 0.0
O O 0.4149363269091963 0.4542247147804836 1.0517917451368766 0.0
O O 0.22464469594386727 0.5088086374053521 1.074764684171071 0.0
O O 0.8815664977720995 0.7684729085222409 1.163761863162795 0.0
O O 0.4095317060931447 0.77803847083948 1.2691905558685088 0.0
N N 0.4358499432190287 0.6150709521210254 1.062325752200139 0.0
N N 0.6603722917934516 0.762879069067026 1.2079582581496577 0.0
C C 0.3012993947893476 0.4713943919511072 1.0983935844729176 0.0
C C 0.29751152056029667 0.424628179002585 1.153717745864346 0.0
C C 0.12931164866916267 0.42396316607816015 1.1830384995511036 0.0
H H 0.054401648669162625 0.45482316607816015 1.1703984995511034 0.0
C C 0.09566997793977762 0.3772100545267715 1.2374436705431269 0.0
H H -0.003240022060222367 0.3777700545267715 1.2591036705431269 0.0
C C 0.23117148989719252 0.3437302154665804 1.2498131752615071 0.0
C C 0.35218059879707864 0.3409667730331194 1.2190355199641638 0.0
C C 0.3896643675560366 0.3802899279953295 1.16783436032737 0.0
H H 0.48727436755603676 0.3782599279953295 1.14530436032737 0.0
C C 0.5455650046397791 0.79030616307613 1.2523134259504107 0.0
C C 0.7894260995526922 0.7878192762559654 1.2074169563801131 0.0
C C 0.5623299736451779 0.6686824820787264 1.0524949297950439 0.0
H H 0.5907399736451779 0.6659524820787265 1.004364929795044 0.0
C C 0.6420939243050444 0.7131583400861202 1.09144928102683 0.0
H H 0.7129039243050445 0.7415283400861202 1.07290928102683 0.0
C C 0.5876088659311138 0.7132768566000721 1.1632326865669147 0.0
C C 0.4608249169939247 0.6667456544805436 1.1837862298061201 0.0
H H 0.43251491699392475 0.6669156544805436 1.2319462298061201 0.0
C C 0.4319603465232356 0.6212085185792238 1.1286262568765844 0.0
H H 0.35847034652323556 0.5926785185792238 1.1449862568765843 0.0
O O 0.26731976947894015 0.6457232068478486 0.9087162757232844 0.0
O O 0.08939211183866058 0.6237192482426128 0.9924297742896654 0.0
O O -0.1244122107702038 0.3454513623066271 0.7646365729767067 0.0
O O 0.32834203282776897 0.3738952033351147 0.6801998786891718 0.0
N N 0.09762405856861196 0.36681073687404553 0.7423845904822544 0.0
N N 0.22580375239599487 0.49410720618046816 0.901258359699597 0.0
C C 0.14994653668642843 0.6567125776581441 0.944418810528575 0.0
C C 0.05483622397892054 0.713005740615522 0.9050433846835181 0.0
C C -0.08500053892450107 0.7209773613681784 0.9325208559319943 0.0
H H -0.11921053892450108 0.6962473613681784 0.9697808559319941 0.0
C C 0.2035982418593743 0.2612680975923806 0.5907908622409447 0.0
H H 0.3020082418593743 0.27013809759238067 0.5710508622409447 0.0
C C 0.15626907879950944 0.3007727027964841 0.6443358408007056 0.0
C C -0.016898427855653212 0.28015709596959965 0.6673271289392273 0.0
C C 0.11055343247208675 0.7360755055980494 0.8513616042999419 0.0
H H 0.21104343247208676 0.7286455055980494 0.8326216042999419 0.0
C C 0.23247492999308395 0.35141364505537687 0.6759270928645893 0.0
C C -0.029561335569784068 0.33230562532003244 0.7268000143139928 0.0
C C 0.24061930512717256 0.5068881892127123 0.8325661918386007 0.0
H H 0.29613930512717257 0.5426581892127125 0.8223361918386007 0.0
C C 0.23782033360768057 0.4633867333929657 0.77558878099813 0.0
H H 0.2661303336076805 0.4718567333929657 0.72844878099813 0.0
C C 0.1431052892160713 0.417577677935629 0.797958023757167 0.0
C C 0.10790796330307277 0.40320580535156086 0.8618636754056349 0.0
H H 0.047927963303072786 0.36877580535156085 0.873723675405635 0.0
C C 0.1451311467272543 0.45117532976481 0.9025672642184548 0.0
H H 0.11338114672725429 0.44455532976481 0.9496472642184548 0.0
Cd Cd -0.3268316282695446 1.056799594062546 -0.4918010934026796 0.0
O O -0.4405618233273025 0.9636879777261933 -0.5575144553788023 0.0
O O -0.22729985113128104 1.0003903794034106 -0.5820893374357415 0.0
O O -0.9061769545939679 1.2628981266885757 -0.6603005228364539 0.0
O O -0.4008063137709339 1.2739880117369375 -0.7666520913244865 0.0
N N -0.4375492447068461 1.12134436483835 -0.5695265817527719 0.0
N N -0.628441808895527 1.26004691413875 -0.6980571883514173 0.0
C C -0.2963813842120165 0.962731184602215 -0.5871715406073652 0.0
C C -0.2869012238792199 0.914635322956181 -0.6423008140937337 0.0
C C -0.12321623996877738 0.9297557485306056 -0.6781691362226342 0.0
H H -0.048306239968777386 0.9606157485306058 -0.6655291362226342 0.0
C C -0.1174917700041252 0.8744772725626655 -0.7365438052443134 0.0
H H -0.018581770004125163 0.8750372725626655 -0.7582038052443134 0.0
C C -0.21964818910817796 0.8402110116089891 -0.7533647283011865 0.0
C C -0.3484621515208734 0.8294284383801934 -0.7212676776085325 0.0
C C -0.3753208352101463 0.8795440171534904 -0.661342410937869 0.0
H H -0.4729308352101464 0.8775140171534904 -0.638812410937869 0.0
C C -0.544228260519804 1.2880201588858724 -0.7474730622585964 0.0
C C -0.7992808116295586 1.2910497578969775 -0.6998406304357615 0.0
C C -0.5587115154667425 1.1652808209175014 -0.5375747282217005 0.0
H H -0.5871215154667426 1.1625508209175013 -0.48944472822170065 0.0
C C -0.6289127661613796 1.2131723987961405 -0.5766440195415385 0.0
H H -0.6997227661613796 1.2415423987961405 -0.5581040195415384 0.0
C C -0.5707534628747709 1.2091653026534008 -0.6492604756664377 0.0
C C -0.48117186082971475 1.1655018207584993 -0.6824995425118502 0.0
H H -0.45286186082971464 1.1656718207584993 -0.7306595425118502 0.0
C C -0.420719630034846 1.1233825323812883 -0.6292009730352748 0.0
H H -0.347229630034846 1.094852532381288 -0.645560973035275 0.0
O O -0.27048988026566484 1.1339018733618866 -0.41136981205831724 0.0
O O -0.07233934205573783 1.123864937302149 -0.4798726699819191 0.0
O O 0.160497427874796 0.8361283502178702 -0.2659187245161724 0.0
O O -0.32355913979352513 0.883633627885832 -0.17379434230204716 0.0
N N -0.10043949104112423 0.8683301360555364 -0.22590744236983298 0.0
N N -0.22331875080579366 0.9965325799766552 -0.4035260301034297 0.0
C C -0.1530850186711607 1.145503240825482 -0.43737975567291 0.0
C C -0.048098776700002205 1.2087411703351543 -0.4121028170497944 0.0
C C 0.09578006443387975 1.2218290751407175 -0.4333581213412254 0.0
H H 0.12999006443387975 1.1970990751407176 -0.4706181213412254 0.0
C C -0.19803019425201518 0.7640907389844305 -0.08148429903880154 0.0
H H -0.29644019425201523 0.7729607389844305 -0.061744299038801576 0.0
C C -0.14463240246409254 0.7937098973726155 -0.15071815774911265 0.0
C C 0.010125106954445856 0.7900406036145867 -0.16225470250346044 0.0
C C -0.08983887836725545 1.2459152581463862 -0.35920284892073284 0.0
H H -0.19032887836725543 1.2384852581463863 -0.34046284892073286 0.0
C C -0.20537794698346484 0.8585660855058023 -0.1770511633698994 0.0
C C 0.03830422120247425 0.8287772581992311 -0.23793011115243698 0.0
C C -0.26335143242950465 1.0066511665912905 -0.3200742227475881 0.0
H H -0.31887143242950466 1.0424211665912906 -0.30984422274758816 0.0
C C -0.2447384592738853 0.9612431835809937 -0.2696874293556481 0.0
H H -0.2730484592738853 0.9697131835809937 -0.22254742935564814 0.0
C C -0.14860844621823177 0.9126048692476595 -0.2812224649938579 0.0
C C -0.09531759359609651 0.9077451226448114 -0.3647308062460415 0.0
H H -0.03533759359609652 0.8733151226448115 -0.37659080624604147 0.0
C C -0.16135170807053403 0.9394943449983464 -0.4105562428163119 0.0
H H -0.12960170807053403 0.9328743449983463 -0.4576362428163119 0.0
Cd Cd -0.3182853233602879 -0.558312221564636 -0.9845536969030468 0.0
O O -0.41663321157649924 -0.4589190088480038 -1.0496821406683858 0.0
O O -0.1926064569048539 -0.5000085364077815 -1.069149792380649 0.0
O O -0.9152016306049381 -0.7742360072828547 -1.1669035134937298 0.0
O O -0.422208692130895 -0.7663708476782131 -1.26012177689308 0.0
N N -0.44063053200227853 -0.6158182493850344 -1.0687716162049425 0.0
N N -0.6293129655603191 -0.7513568487621127 -1.1939524575998006 0.0
C C -0.30640825498297036 -0.4736839585168673 -1.094526035163204 0.0
C C -0.2643867302492499 -0.41598974421940554 -1.1419610360720762 0.0
C C -0.1416995877703205 -0.42250257513773176 -1.1741816108725662 0.0
H H -0.06678958777032043 -0.45336257513773176 -1.1615416108725662 0.0
C C -0.11170137509132635 -0.38653818777729226 -1.2322822690696162 0.0
H H -0.012791375091326352 -0.38709818777729227 -1.2539422690696163 0.0
C C -0.2047248259866115 -0.3399305169202483 -1.2442946672114317 0.0
C C -0.3394839723375071 -0.33168926035397783 -1.2211624697230277 0.0
C C -0.3681004201607988 -0.37831466806427144 -1.1636290285471054 0.0
H H -0.4657104201607989 -0.37628466806427147 -1.1410990285471054 0.0
C C -0.544567093148243 -0.7834659595602367 -1.2488718937079357 0.0
C C -0.800601511758648 -0.7936795012166037 -1.202783690194285 0.0
C C -0.5355889219123858 -0.6616810714736292 -1.0386974459179261 0.0
H H -0.5639989219123859 -0.6589510714736294 -0.9905674459179261 0.0
C C -0.6013880276607521 -0.7087158911699692 -1.0800383996368623 0.0
H H -0.6721980276607521 -0.737085891169969 -1.0614983996368623 0.0
C C -0.5747605015095955 -0.7099967473611535 -1.1554936544891754 0.0
C C -0.48699561505691286 -0.6629945859247411 -1.1747245826407926 0.0
H H -0.45868561505691297 -0.6631645859247411 -1.2228845826407928 0.0
C C -0.43448065723149315 -0.6244266640231569 -1.1247516492234333 0.0
H H -0.3609906572314932 -0.595896664023157 -1.1411116492234334 0.0
O O -0.29354219092607137 -0.6417327356059338 -0.9070956112668407 0.0
O O -0.09881488493859256 -0.6253896433123446 -0.988934513681396 0.0
O O 0.14741145485894136 -0.342065780840323 -0.7614921046039366 0.0
O O -0.3388690760527769 -0.3692014010815452 -0.6672182522196655 0.0
N N -0.10606566625887885 -0.3754318159688744 -0.740224896665626 0.0
N N -0.22858093692308548 -0.5008895939332093 -0.9025590454165029 0.0
C C -0.14138305516388425 -0.6554673054737091 -0.9295616953233424 0.0
C C -0.0477492190456446 -0.7091772961153763 -0.9101458359445765 0.0
C C 0.07958239854073011 -0.7253811255496136 -0.9423472540667186 0.0
H H 0.11379239854073014 -0.7006511255496138 -0.9796072540667186 0.0
C C -0.20149092694398307 -0.2685518297560547 -0.5898482153181409 0.0
H H -0.29990092694398307 -0.27742182975605467 -0.5701082153181409 0.0
C C -0.14878741667446305 -0.3028537931685698 -0.6409424951962339 0.0
C C -0.0005402719251046712 -0.2910591047909998 -0.672189979311507 0.0
C C -0.110857852348078 -0.7505580932229109 -0.8599708647710209 0.0
H H -0.21134785234807804 -0.7431280932229108 -0.8412308647710209 0.0
C C -0.20935857223693272 -0.3467166952504305 -0.6748699386177974 0.0
C C 0.03689878876659042 -0.33676766724171103 -0.7287721645410352 0.0
C C -0.28391003231399364 -0.5070292721184256 -0.8353138462185749 0.0
H H -0.33943003231399366 -0.5427992721184258 -0.8250838462185749 0.0
C C -0.24250643417888168 -0.47114106866058214 -0.7744919647119192 0.0
H H -0.2708164341788816 -0.4796110686605821 -0.7273519647119192 0.0
C C -0.15272478131160722 -0.4179718697443007 -0.7956664857988263 0.0
C C -0.0847300302712104 -0.40221591542564417 -0.8512552294218287 0.0
H H -0.024750030271210383 -0.36778591542564415 -0.8631152294218287 0.0
C C -0.1275887431383991 -0.43838022203987204 -0.9002234495679701 0.0
H H -0.09583874313839909 -0.43176022203987197 -0.9473034495679701 0.0
Cd Cd 0.3210828262305382 -1.0615006374322604 0.48131449175519625 0.0
O O 0.43104062588203423 -0.9543376797915307 0.565733046568825 0.0
O O 0.22268793913923624 -1.0004054911226505 0.5821400098578179 0.0
O O 0.9120556898458134 -1.2657825864747119 0.6563465185214223 0.0
O O 0.41613512722117146 -1.2735710132934213 0.7733615073530076 0.0
N N 0.47049789974083783 -1.1180309049788548 0.5582677052347357 0.0
N N 0.6312216986119272 -1.2533205450020435 0.6965627886388592 0.0
C C 0.30366372497047567 -0.9612433035996267 0.5969193282125764 0.0
C C 0.2684722742047656 -0.9245384645882975 0.6392647980532234 0.0
C C 0.13851263038512446 -0.9198662452126776 0.6753936773851813 0.0
H H 0.06360263038512445 -0.9507262452126778 0.6627536773851813 0.0
C C 0.09779210959188774 -0.8813849567644376 0.7368712073582616 0.0
H H -0.0011178904081122843 -0.8819449567644376 0.7585312073582616 0.0
C C 0.2215288732904291 -0.8376843870509514 0.745858602364559 0.0
C C 0.3717415706383704 -0.8353318169679077 0.7242821223886312 0.0
C C 0.40697226220171634 -0.8711728365337158 0.6704691761899724 0.0
H H 0.5045822622017164 -0.8691428365337158 0.6479391761899724 0.0
C C 0.5534186404845104 -1.2879260619508546 0.7508366490914002 0.0
C C 0.7750245996760565 -1.2859144639926001 0.6994267495722686 0.0
C C 0.5550890288943936 -1.165737702654887 0.5494925443738511 0.0
H H 0.5834990288943938 -1.1630077026548868 0.5013625443738512 0.0
C C 0.6319783788418012 -1.2092363848955199 0.5881577082658502 0.0
H H 0.7027883788418013 -1.2376063848955199 0.5696177082658501 0.0
C C 0.5935108400754506 -1.202795113815518 0.6601176162505188 0.0
C C 0.4899997636730912 -1.1684481814393983 0.681933526354092 0.0
H H 0.46168976367309117 -1.1686181814393986 0.7300935263540919 0.0
C C 0.43494538609220645 -1.127936115532612 0.6254056049748783 0.0
H H 0.36145538609220645 -1.099406115532612 0.6417656049748784 0.0
O O 0.2643266244913421 -1.1460331415118497 0.41411664973869045 0.0
O O 0.0789886402277416 -1.1258895633217592 0.4877883815544137 0.0
O O -0.1470110773341506 -0.8394379749822587 0.2549745958097397 0.0
O O 0.3355216582665857 -0.8726204658117425 0.18049829914607318 0.0
N N 0.10047620565241541 -0.8733796741448582 0.24233789192118987 0.0
N N 0.22170906028024967 -0.9963529416342871 0.39356584227099406 0.0
C C 0.13810889272225416 -1.152475967292091 0.4452539351608488 0.0
C C 0.029375308040078374 -1.213349991186192 0.4062121662635545 0.0
C C -0.09526890207242408 -1.2154692829410876 0.43523080597863545 0.0
H H -0.12947890207242405 -1.1907392829410877 0.47249080597863546 0.0
C C 0.2043961297552305 -0.7634079636986706 0.08988160562316497 0.0
H H 0.3028061297552305 -0.7722779636986706 0.07014160562316499 0.0
C C 0.15021475785393357 -0.7954606586089097 0.1408178795099318 0.0
C C -0.007401316958817199 -0.7839963199150731 0.1706589667486588 0.0
C C 0.10603137546153732 -1.2452107931021184 0.34413865742472577 0.0
H H 0.20652137546153732 -1.2377807931021185 0.3253986574247258 0.0
C C 0.2348318651326996 -0.8448193360160465 0.18123909950312436 0.0
C C -0.018534632741069812 -0.8264570518077765 0.2260287551748742 0.0
C C 0.26062147358793425 -1.0095323016208626 0.33471407225300626 0.0
H H 0.31614147358793426 -1.0453023016208627 0.3244840722530063 0.0
C C 0.20996807554542915 -0.9664444037816566 0.26678409220922983 0.0
H H 0.23827807554542918 -0.9749144037816566 0.21964409220922987 0.0
C C 0.12076532574519781 -0.9134498925153408 0.2917500384231402 0.0
C C 0.09554182048014255 -0.9010945066734586 0.34972539866479113 0.0
H H 0.03556182048014255 -0.8666645066734586 0.3615853986647911 0.0
C C 0.1561063782658539 -0.9379290791470459 0.41141982719507814 0.0
H H 0.1243563782658539 -0.931309079147046 0.45849982719507815 0.0
