_cell_length_a 8.39304
_cell_length_b 22.23511
_cell_length_c 18.74218
_cell_angle_alpha 90.0
_cell_angle_beta 94.0312
_cell_angle_gamma 90.0
_symmetry_space_group_name_H-M         'P 1'
_symmetry_Int_Tables_number            1
loop_
_symmetry_equiv_pos_as_xyz
   'x, y, z'
                         
loop_
_atom_site_label
_atom_site_type_symbol
_atom_site_fract_x 
_atom_site_fract_y
_atom_site_fract_z
_atom_site_charge
Cd Cd 0.3095013272243385 0.5547992121837607 0.9848863168272999 0.0
O O 0.45383133436798456 0.4619577128209181 1.0597075191967031 0.0
O O 0.1993381971768304 0.49911705573049864 1.078062628224639 0.0
O O 0.8772959454130481 0.7740036577837943 1.1582289459349293 0.0
O O 0.4038935954386826 0.7727167653233824 1.2594963987492311 0.0
N N 0.4456944433910069 0.614710944658965 1.070265512283972 0.0
N N 0.6332459679846341 0.7515687121818211 1.2022311880602439 0.0
C C 0.30871312530955125 0.47337283052902085 1.089578515190636 0.0
C C 0.26950720329600847 0.4166969500721112 1.1440592434556784 0.0
C C 0.11860292031191028 0.41681870257829695 1.1879220252408271 0.0
H H 0.04369292031191023 0.44767870257829695 1.175282025240827 0.0
C C 0.0818758531297479 0.3758113176447517 1.2230172610044734 0.0
H H -0.017034146870252124 0.3763713176447517 1.2446772610044736 0.0
C C 0.21110162372794564 0.33771879211699535 1.2565519549804578 0.0
C C 0.35522875451349206 0.34470276225908725 1.2219116935037613 0.0
C C 0.3759112163938791 0.385091469640064 1.1568616710864095 0.0
H H 0.4735212163938792 0.383061469640064 1.1343316710864095 0.0
C C 0.5462513781738565 0.7888539491307672 1.2595338731577261 0.0
C C 0.7975629795585354 0.7802435622485824 1.1953923542719371 0.0
C C 0.5362028954753101 0.667151895695789 1.034382215077059 0.0
H H 0.5646128954753101 0.6644218956957891 0.9862522150770591 0.0
C C 0.6449740272953396 0.7041082920752241 1.0867186936620363 0.0
H H 0.7157840272953397 0.7324782920752239 1.0681786936620363 0.0
C C 0.6044939799735484 0.7061875557313115 1.1557032217739107 0.0
C C 0.4822577978756259 0.6696691461644422 1.1807798100338502 0.0
H H 0.45394779787562595 0.6698391461644422 1.2289398100338504 0.0
C C 0.4253458635973501 0.6318263023713545 1.1290778473279905 0.0
H H 0.35185586359735005 0.6032963023713545 1.1454378473279905 0.0
O O 0.2719964729625322 0.6446936368160029 0.9163353326591568 0.0
O O 0.07071818005069484 0.6258513367758493 0.984818006751345 0.0
O O -0.1337402352660504 0.3484391784956831 0.7530861788265283 0.0
O O 0.3378597349014274 0.3778170075972449 0.6638957460436382 0.0
N N 0.08912686882307498 0.3725114558359234 0.7255372890908385 0.0
N N 0.2364214221133123 0.4959541333825882 0.902882690911191 0.0
C C 0.13319678179383898 0.652583526595543 0.9364887826134555 0.0
C C 0.02809976005388049 0.7032001644276099 0.9012244156315228 0.0
C C -0.08328557667289772 0.7171006648542966 0.9471220490574477 0.0
H H -0.11749557667289774 0.6923706648542967 0.9843820490574475 0.0
C C 0.1815282668339986 0.2676563382957979 0.5807133607402156 0.0
H H 0.2799382668339986 0.27652633829579787 0.5609733607402156 0.0
C C 0.14720397875185937 0.3059691193530156 0.6486629853929303 0.0
C C -0.006219539942486746 0.2866648702796863 0.6723951531579206 0.0
C C 0.09656314022981914 0.749015654659473 0.8496969540285433 0.0
H H 0.19705314022981918 0.7415856546594729 0.8309569540285433 0.0
C C 0.19234162712224526 0.3578473275888623 0.6724691248582639 0.0
C C -0.035902462403193114 0.3322042593363688 0.7299951922109292 0.0
C C 0.26205720344922295 0.504496299426331 0.8348344372982118 0.0
H H 0.3175772034492229 0.5402662994263311 0.8246044372982119 0.0
C C 0.22344740082438036 0.45577099724983006 0.7798933947001253 0.0
H H 0.25175740082438036 0.46424099724983 0.7327533947001255 0.0
C C 0.1335702121298632 0.4117026840881537 0.7912178028167443 0.0
C C 0.07957206587120501 0.4022792793476867 0.8508585635447048 0.0
H H 0.01959206587120502 0.3678492793476867 0.8627185635447049 0.0
C C 0.14690591063055528 0.4410334177279411 0.9046259950506333 0.0
H H 0.11515591063055525 0.43441341772794106 0.9517059950506334 0.0
Cd Cd -0.32053737912466224 1.0566237243792895 -0.4899586111890615 0.0
O O -0.4372697678174215 0.9517394387917525 -0.5517271040693074 0.0
O O -0.19196747572446832 0.9999308214853335 -0.5681133639523804 0.0
O O -0.8927447897212603 1.2779597364038051 -0.6596939859553984 0.0
O O -0.4155626241189187 1.267242255380402 -0.7682867255816342 0.0
N N -0.4663229375973428 1.1130223134591095 -0.5608562030882763 0.0
N N -0.6404015397274473 1.2573073712433651 -0.7113560449690972 0.0
C C -0.32907336855706304 0.9660829722831046 -0.5964148190528744 0.0
C C -0.264874952386461 0.9156900522083136 -0.6528237216689593 0.0
C C -0.1401194399221094 0.9251233696439404 -0.6704676402804481 0.0
H H -0.0652094399221094 0.9559833696439406 -0.6578276402804482 0.0
C C -0.08515007495109544 0.8764266576562207 -0.7366984556133435 0.0
H H 0.013759925048904569 0.8769866576562207 -0.7583584556133435 0.0
C C -0.21173046997673886 0.832435934382405 -0.7575840500925477 0.0
C C -0.3372110086743486 0.8437909675534401 -0.7237185030052997 0.0
C C -0.39536578459759664 0.8755422696876083 -0.6660618407489188 0.0
H H -0.4929757845975968 0.8735122696876083 -0.6435318407489188 0.0
C C -0.560607905142768 1.2829625321071978 -0.7451624854842327 0.0
C C -0.8051274850120136 1.2925484974907047 -0.6963667555683464 0.0
C C -0.5445486033403433 1.16542559962053 -0.5509510676088355 0.0
H H -0.5729586033403434 1.16269559962053 -0.5028210676088356 0.0
C C -0.6194206299559197 1.2006549264641266 -0.5769639858238996 0.0
H H -0.6902306299559199 1.2290249264641266 -0.5584239858238995 0.0
C C -0.5954529271168647 1.2145579077810547 -0.6564037838965162 0.0
C C -0.49347417829001783 1.1748062638028072 -0.6788332517302513 0.0
H H -0.4651641782900178 1.1749762638028074 -0.7269932517302513 0.0
C C -0.4072308153564047 1.1178504923788244 -0.628346995500174 0.0
H H -0.33374081535640465 1.0893204923788244 -0.6447069955001742 0.0
O O -0.2837844023480929 1.140790368814019 -0.4116748795314596 0.0
O O -0.07408608484771585 1.1304326976235877 -0.48828830705737 0.0
O O 0.12127463468205556 0.83736530362408 -0.26670466809994825 0.0
O O -0.3500974528432075 0.8729997692755753 -0.17922824075139163 0.0
N N -0.09476614960257204 0.8752659665652999 -0.24078511279180917 0.0
N N -0.2111998881477225 0.9862526286218039 -0.3874723088479232 0.0
C C -0.14993640589178145 1.147184634431406 -0.4398930348687757 0.0
C C -0.049162312539332176 1.1992572780021633 -0.3988854296310495 0.0
C C 0.10048481713255217 1.2228030165889718 -0.4427793954343623 0.0
H H 0.13469481713255216 1.198073016588972 -0.48003939543436225 0.0
C C -0.20844248164362156 0.7679634888794385 -0.09915155262770901 0.0
H H -0.3068524816436216 0.7768334888794386 -0.07941155262770905 0.0
C C -0.14081763860230068 0.7962947108841729 -0.15070632229386366 0.0
C C -0.007055794169615405 0.7829812200981714 -0.1789638155039185 0.0
C C -0.1166154108183352 1.2454918217434459 -0.3566588999293179 0.0
H H -0.21710541081833518 1.238061821743446 -0.3379188999293179 0.0
C C -0.23095272144717266 0.8516818914276697 -0.18598137406730514 0.0
C C 0.041507026554248955 0.8327262294571982 -0.2211583414540985 0.0
C C -0.2775725032059423 1.0050579688178836 -0.3217734638867812 0.0
H H -0.3330925032059423 1.0408279688178836 -0.3115434638867813 0.0
C C -0.24043908207237466 0.9733434935561414 -0.284006245996808 0.0
H H -0.2687490820723747 0.9818134935561413 -0.23686624599680803 0.0
C C -0.14709303724343517 0.9185573227165251 -0.2929255281125218 0.0
C C -0.10714906563244997 0.9040646299916928 -0.3678674788544994 0.0
H H -0.047169065632449964 0.8696346299916928 -0.37972747885449937 0.0
C C -0.13191548741587916 0.939599585443236 -0.39841788265476125 0.0
H H -0.10016548741587913 0.932979585443236 -0.44549788265476115 0.0
Cd Cd -0.3372968218301999 -0.5531659997276187 -0.9889398454350482 0.0
O O -0.4360434340020013 -0.4606644236429542 -1.051515478674739 0.0
O O -0.2132478004135038 -0.5015967924408268 -1.0801510097398543 0.0
O O -0.8839914842981133 -0.7648900432935876 -1.15682222285505 0.0
O O -0.39714167033936554 -0.77775941339595 -1.255733061017763 0.0
N N -0.4666004604842836 -0.6258361253784592 -1.0701300324861207 0.0
N N -0.6309203609486952 -0.7556535980433381 -1.2079851523868017 0.0
C C -0.2931103617627083 -0.47456020380098174 -1.0806469288166203 0.0
C C -0.27591848480481823 -0.41733537149489064 -1.1550410019203612 0.0
C C -0.12114596134897396 -0.4143689630785542 -1.1791413327398121 0.0
H H -0.04623596134897389 -0.44522896307855425 -1.166501332739812 0.0
C C -0.07850794553725736 -0.3831871577168359 -1.2239789807632777 0.0
H H 0.020402054462742656 -0.38374715771683593 -1.2456389807632777 0.0
C C -0.19410282912935584 -0.3456874067890621 -1.251066124264671 0.0
C C -0.3629867728761911 -0.3414222063508112 -1.2209958424837781 0.0
C C -0.3942736654622105 -0.36768681668381914 -1.1653000036447847 0.0
H H -0.49188366546221063 -0.3656568166838191 -1.1427700036447848 0.0
C C -0.5232282637853695 -0.7940549647772135 -1.247677366824685 0.0
C C -0.797329542629032 -0.7865518250687998 -1.195298002257858 0.0
C C -0.5403363982432193 -0.6609767420747437 -1.0344834165738959 0.0
H H -0.5687463982432194 -0.6582467420747439 -0.986353416573896 0.0
C C -0.6310661077826024 -0.6989737542534824 -1.0823392333795436 0.0
H H -0.7018761077826025 -0.7273437542534823 -1.0637992333795436 0.0
C C -0.5798372221633069 -0.7176239645784812 -1.1557499402443336 0.0
C C -0.5017761900894456 -0.6587518766360683 -1.1852892572540836 0.0
H H -0.47346619008944574 -0.6589218766360683 -1.2334492572540836 0.0
C C -0.4289493618103864 -0.6274868532885075 -1.1396064908730967 0.0
H H -0.35545936181038634 -0.5989568532885076 -1.1559664908730967 0.0
O O -0.2688958498085424 -0.6345574556534181 -0.9011833839162796 0.0
O O -0.09597730807956037 -0.6152251132156548 -0.9847803809588231 0.0
O O 0.1355846759831787 -0.3461286406392853 -0.7562476065758981 0.0
O O -0.3349415000157113 -0.37555764047253265 -0.6851172561251415 0.0
N N -0.0968533105311763 -0.3729300764988004 -0.7403484690769699 0.0
N N -0.21822578641300758 -0.5013717401397432 -0.902904664222654 0.0
C C -0.13409487451384447 -0.6478805519694155 -0.9316780591467014 0.0
C C -0.03623017768804132 -0.7116730360259425 -0.9116557518606111 0.0
C C 0.07332394754818998 -0.7135166556083864 -0.9378172774965629 0.0
H H 0.10753394754819001 -0.6887866556083865 -0.9750772774965628 0.0
C C -0.19009825098258162 -0.26309650491696007 -0.5941447129388745 0.0
H H -0.2885082509825816 -0.27196650491696006 -0.5744047129388745 0.0
C C -0.15153996719243604 -0.29808055578042425 -0.6551049993392709 0.0
C C -0.017099738065540077 -0.28871777831412004 -0.6742335304866232 0.0
C C -0.11261935282590535 -0.7364015867876679 -0.8602227692488768 0.0
H H -0.21310935282590537 -0.7289715867876678 -0.8414827692488768 0.0
C C -0.19846719826784653 -0.3498423287223818 -0.6739823929052858 0.0
C C 0.010893654093444533 -0.3342553339109462 -0.7295678392674543 0.0
C C -0.26357419898746354 -0.5095355032885883 -0.8276656391399498 0.0
H H -0.3190941989874635 -0.5453055032885884 -0.8174356391399499 0.0
C C -0.23524725194287743 -0.4708936819697802 -0.7776521452604549 0.0
H H -0.26355725194287744 -0.4793636819697802 -0.7305121452604549 0.0
C C -0.11999686253985288 -0.41491139571988145 -0.78753987063553 0.0
C C -0.09927677152897892 -0.40900088578854976 -0.8565646207745006 0.0
H H -0.03929677152897895 -0.37457088578854975 -0.8684246207745008 0.0
C C -0.12782518080581745 -0.45047344454479166 -0.9105699186217705 0.0
H H -0.09607518080581742 -0.4438534445447916 -0.9576499186217705 0.0
Cd Cd 0.3391879347646408 -1.053001566485108 0.4851726313939454 0.0
O O 0.4290842554356258 -0.9617149320633441 0.5487289458279764 0.0
O O 0.20830383145676282 -1.0092858908628908 0.5779248021146811 0.0
O O 0.912504956797397 -1.2684957960088457 0.6543727398600592 0.0
O O 0.4372867667965984 -1.273381318948195 0.7695020048353423 0.0
N N 0.4353848024645542 -1.1213261982388578 0.562730468947268 0.0
N N 0.6291391252836194 -1.2563594227802737 0.6972741010471041 0.0
C C 0.3005630299268925 -0.9662763267849128 0.598855708354622 0.0
C C 0.27563258154163667 -0.9121197594584111 0.6378874116210199 0.0
C C 0.15132805792528478 -0.9233089323164686 0.6837113268983428 0.0
H H 0.07641805792528478 -0.9541689323164687 0.6710713268983428 0.0
C C 0.11762167848547644 -0.8872286833916955 0.7348847844753085 0.0
H H 0.01871167848547641 -0.8877886833916955 0.7565447844753085 0.0
C C 0.19497470800463731 -0.8398804953042958 0.7463880111798511 0.0
C C 0.3480757638777615 -0.8325471893923357 0.7109199110886598 0.0
C C 0.399453315449978 -0.879534349520519 0.6744474200440841 0.0
H H 0.49706331544997806 -0.877504349520519 0.651917420044084 0.0
C C 0.5661244304376819 -1.2913038368509309 0.757991829340543 0.0
C C 0.8056117548956705 -1.289829130910748 0.7002309872065628 0.0
C C 0.5689595178180074 -1.161785898363599 0.5435908610135528 0.0
H H 0.5973695178180074 -1.1590558983635988 0.4954608610135529 0.0
C C 0.6264745966275544 -1.1987120966109492 0.5835397344061015 0.0
H H 0.6972845966275546 -1.2270820966109492 0.5649997344061014 0.0
C C 0.5672161313686277 -1.2103284003889294 0.6561164166019018 0.0
C C 0.48884188594421113 -1.164454347868626 0.6689683706129327 0.0
H H 0.4605318859442111 -1.164624347868626 0.7171283706129326 0.0
C C 0.408794005555755 -1.1280768724471495 0.6386542789701091 0.0
H H 0.335304005555755 -1.0995468724471495 0.6550142789701092 0.0
O O 0.2735942656998806 -1.145349793891322 0.4031309326917491 0.0
O O 0.0718459776156448 -1.1285631441585868 0.4865924553687089 0.0
O O -0.15988377414016083 -0.8356772535049354 0.26711159070620893 0.0
O O 0.36116697865447606 -0.8716832221324291 0.18137433221241483 0.0
N N 0.1281143798053626 -0.8740939431435237 0.2334802729223973 0.0
N N 0.2229692012847083 -0.9968801238320787 0.3942061988817453 0.0
C C 0.12296090177998287 -1.1530013452671652 0.43499077572460965 0.0
C C 0.0663834311322284 -1.2018949086341273 0.40880145679626073 0.0
C C -0.12147251988754537 -1.2201685827072977 0.42884549882750883 0.0
H H -0.15568251988754536 -1.1954385827072977 0.4661054988275088 0.0
C C 0.21455416868915422 -0.769770284673045 0.09396637425724799 0.0
H H 0.3129641686891542 -0.778640284673045 0.07422637425724801 0.0
C C 0.15256634391332152 -0.8047598203272349 0.13959278016270985 0.0
C C -0.010175168380889128 -0.7856569935553799 0.17073419191831868 0.0
C C 0.09505593774530242 -1.2436519959619439 0.3467689418882393 0.0
H H 0.19554593774530243 -1.236221995961944 0.32802894188823933 0.0
C C 0.21542932922463223 -0.8610525878095813 0.19162144536999123 0.0
C C -0.03685838460962719 -0.8313110022159923 0.22206010876755497 0.0
C C 0.2760462815519731 -1.0025512032836434 0.32604491785855394 0.0
H H 0.3315662815519731 -1.0383212032836435 0.31581491785855403 0.0
C C 0.23628879864184435 -0.9740183535061998 0.27734898833864596 0.0
H H 0.2645987986418444 -0.9824883535061998 0.23020898833864598 0.0
C C 0.12316711779008895 -0.904525313289272 0.2845276780811604 0.0
C C 0.1219300029296945 -0.9105018652666849 0.3645850316120244 0.0
H H 0.0619500029296945 -0.8760718652666849 0.37644503161202436 0.0
C C 0.15805096438942565 -0.944318383709901 0.40658584028712264 0.0
H H 0.12630096438942565 -0.9376983837099009 0.45366584028712265 0.0
