_cell_length_a 8.39304
_cell_length_b 22.23511
_cell_length_c 18.74218
_cell_angle_alpha 90.0
_cell_angle_beta 94.0312
_cell_angle_gamma 90.0
_symmetry_space_group_name_H-M         'P 1'
_symmetry_Int_Tables_number            1
loop_
_symmetry_equiv_pos_as_xyz
   'x, y, z'
                         
loop_
_atom_site_label
_atom_site_type_symbol
_atom_site_fract_x 
_atom_site_fract_y
_atom_site_fract_z
_atom_site_charge
Cd Cd 0.31450527356306773 0.5481721622407597 0.9987024563078779 0.0
O O 0.4262649236714057 0.4641455521315314 1.0627578365599695 0.0
O O 0.1983487095436217 0.5033159482750212 1.070073687647671 0.0
O O 0.9002297029598881 0.7685798297955113 1.1713498014734003 0.0
O O 0.4314293330842558 0.7762107173687837 1.268274566764834 0.0
N N 0.4286382208201057 0.6266030049669613 1.052189766935534 0.0
N N 0.6390113154091281 0.7611451676305974 1.2068802818686681 0.0
C C 0.3103317992689755 0.46737196954420673 1.0824254580283366 0.0
C C 0.2540551449971068 0.42604616739803264 1.1468378908994703 0.0
C C 0.10690355056891072 0.43249807976357524 1.1762360910879717 0.0
H H 0.03199355056891067 0.46335807976357524 1.1635960910879717 0.0
C C 0.0882790772357688 0.37651095502169335 1.222366279466665 0.0
H H -0.010630922764231226 0.37707095502169335 1.244026279466665 0.0
C C 0.23731599564239914 0.330950576447538 1.2538356277360834 0.0
C C 0.36953082132189524 0.3386348402509737 1.228795272123885 0.0
C C 0.4063410007867472 0.3697284236348011 1.1741385053050937 0.0
H H 0.5039510007867473 0.3676984236348011 1.1516085053050935 0.0
C C 0.5773907696355857 0.7844568399148033 1.2554321149881298 0.0
C C 0.7645085735348014 0.7973096724397991 1.196697240279056 0.0
C C 0.5615207337270093 0.6627538947955849 1.0306070781461423 0.0
H H 0.5899307337270092 0.6600238947955851 0.9824770781461425 0.0
C C 0.6323696704497035 0.7116316742897141 1.0770972056097785 0.0
H H 0.7031796704497034 0.740001674289714 1.0585572056097785 0.0
C C 0.5966282960650421 0.7019985034085785 1.1621193609331923 0.0
C C 0.4800297879541127 0.6764086008277772 1.1798026771585783 0.0
H H 0.4517197879541128 0.6765786008277772 1.2279626771585785 0.0
C C 0.42807248212218746 0.6306268882394349 1.1248499476909655 0.0
H H 0.3545824821221874 0.602096888239435 1.1412099476909654 0.0
O O 0.26780801859623693 0.6455861723695748 0.9130970798019677 0.0
O O 0.10207529740288315 0.6140487859623823 0.9968748226802384 0.0
O O -0.14098458317181553 0.33988334532285264 0.763858089536337 0.0
O O 0.33886942309052026 0.37817313687897425 0.6622197496025422 0.0
N N 0.10195276760493403 0.37214021119449253 0.7384672898664609 0.0
N N 0.24700226735530115 0.49427098137335385 0.9026998126464985 0.0
C C 0.14908258476289027 0.6562006797936663 0.932609306443883 0.0
C C 0.06502961714345397 0.7063162864786512 0.9071994895487504 0.0
C C -0.08862244811742864 0.7182682990494704 0.9360900379532918 0.0
H H -0.12283244811742865 0.6935382990494705 0.9733500379532917 0.0
C C 0.18601021312171037 0.264770077011029 0.5779747112183572 0.0
H H 0.2844202131217104 0.27364007701102894 0.5582347112183572 0.0
C C 0.14143415643971702 0.29725237271138416 0.6491688977557052 0.0
C C -0.012194062984806783 0.28202183580710843 0.6767648834922645 0.0
C C 0.10452699894873016 0.7460660817463312 0.8581635813424165 0.0
H H 0.2050169989487302 0.7386360817463311 0.8394235813424167 0.0
C C 0.21130171241334925 0.3508855417489698 0.6952180594243421 0.0
C C -0.03825285849976094 0.34018312700642817 0.7293493003695161 0.0
C C 0.2420195328752793 0.508131014009962 0.8252845398727977 0.0
H H 0.2975395328752793 0.5439010140099622 0.8150545398727977 0.0
C C 0.20843784213557748 0.4717774157333132 0.7649243724658891 0.0
H H 0.23674784213557748 0.4802474157333132 0.7177843724658892 0.0
C C 0.13980475527157965 0.41472142561487113 0.7826107994976118 0.0
C C 0.1109661046169784 0.3946561628332272 0.8573926547589997 0.0
H H 0.0509861046169784 0.3602261628332272 0.8692526547589998 0.0
C C 0.12292961584452264 0.4427521855824807 0.9046947548605082 0.0
H H 0.09117961584452261 0.4361321855824807 0.9517747548605082 0.0
Cd Cd -0.32453820073858203 1.0603464833654934 -0.4882259626803085 0.0
O O -0.4105609659914189 0.9498745814549682 -0.5472236767866322 0.0
O O -0.19132963407277803 0.9975465230858814 -0.5797945193296236 0.0
O O -0.8779359331854792 1.2647251556003019 -0.6536579500324119 0.0
O O -0.41767670470046914 1.2748302601052857 -0.7609678590233083 0.0
N N -0.43597088774144394 1.121518416780317 -0.5572000161883285 0.0
N N -0.6414241419953511 1.258434723190774 -0.7015526256509126 0.0
C C -0.31866463573509773 0.9628435373778624 -0.5893477001937887 0.0
C C -0.30093976561908664 0.9292813493034552 -0.6560526023662936 0.0
C C -0.12162503337178435 0.9159071196151323 -0.677339799403745 0.0
H H -0.04671503337178435 0.9467671196151324 -0.664699799403745 0.0
C C -0.07963147321080545 0.8704853086368466 -0.7195445031446908 0.0
H H 0.019278526789194558 0.8710453086368466 -0.7412045031446908 0.0
C C -0.18744714709769572 0.8330891701912814 -0.7478369831585645 0.0
C C -0.3465009162611843 0.8357723032745138 -0.7267291068138175 0.0
C C -0.40485156184081195 0.8798944232171819 -0.6617501391488796 0.0
H H -0.502461561840812 0.8778644232171819 -0.6392201391488797 0.0
C C -0.5255141901993511 1.2869290290439885 -0.7492429830618736 0.0
C C -0.8112881167373662 1.291561683767464 -0.707925017814752 0.0
C C -0.5622368806365375 1.1595177727798411 -0.5389639157903767 0.0
H H -0.5906468806365376 1.156787772779841 -0.49083391579037683 0.0
C C -0.6545671611264336 1.2180361078069168 -0.5977094601852646 0.0
H H -0.7253771611264338 1.2464061078069169 -0.5791694601852645 0.0
C C -0.5957821015827809 1.2182800612770257 -0.6610333940462679 0.0
C C -0.46098846722093595 1.161688644070769 -0.675102291524411 0.0
H H -0.43267846722093584 1.1618586440707692 -0.723262291524411 0.0
C C -0.4345481522948792 1.1286276853243447 -0.6278559296712558 0.0
H H -0.3610581522948792 1.1000976853243447 -0.6442159296712561 0.0
O O -0.2542786708528196 1.1397655641563842 -0.40308931406955767 0.0
O O -0.0843589309675261 1.1229199867377875 -0.48491116058636335 0.0
O O 0.12386120616168925 0.8411691571681401 -0.2643142472128276 0.0
O O -0.33464282851666977 0.8691982228215988 -0.16221683496768302 0.0
N N -0.12827218544815458 0.8768020586527817 -0.23687873903281764 0.0
N N -0.21827169529116816 0.9937255493086447 -0.40730714488792774 0.0
C C -0.14229901291811947 1.1497401707025932 -0.4401416395861424 0.0
C C -0.03134001654482989 1.2063939709799003 -0.4019172082665059 0.0
C C 0.11433076081436942 1.2206409974472403 -0.43807201806320034 0.0
H H 0.14854076081436943 1.1959109974472404 -0.47533201806320036 0.0
C C -0.19092449925318652 0.7744245408856897 -0.08954128118005239 0.0
H H -0.28933449925318655 0.7832945408856897 -0.06980128118005242 0.0
C C -0.14149451464239343 0.7914501210045533 -0.13739837858062637 0.0
C C -0.00017028050422275575 0.7844245199546136 -0.18203069369349148 0.0
C C -0.1265482312282229 1.2513724591175024 -0.36435960531944767 0.0
H H -0.22703823122822286 1.2439424591175026 -0.3456196053194477 0.0
C C -0.23275732145666803 0.8532044789097553 -0.17836322556283304 0.0
C C 0.017797722661848987 0.8266169682577431 -0.22264288469498394 0.0
C C -0.26349355773469824 1.0029492114136296 -0.33479235906158195 0.0
H H -0.31901355773469825 1.0387192114136297 -0.32456235906158204 0.0
C C -0.22004661660223837 0.9630484360553803 -0.2830901985103796 0.0
H H -0.2483566166022384 0.9715184360553802 -0.23595019851037963 0.0
C C -0.13286322288966892 0.9128374895638995 -0.2777820571270223 0.0
C C -0.07781818840010009 0.9049308243068188 -0.3585081509891853 0.0
H H -0.01783818840010008 0.8705008243068189 -0.3703681509891853 0.0
C C -0.11695827615691298 0.9422165240036597 -0.39788872751101706 0.0
H H -0.08520827615691298 0.9355965240036597 -0.44496872751101707 0.0
Cd Cd -0.31192328118901097 -0.5601608147259153 -0.9855083938119211 0.0
O O -0.436316171086451 -0.45724433082052063 -1.0490037853776824 0.0
O O -0.23049304092005907 -0.5024277738283611 -1.0869318657190412 0.0
O O -0.8783632848601229 -0.7705293854126938 -1.1663394148970525 0.0
O O -0.4033610994301195 -0.7677971863021554 -1.2651328192999014 0.0
N N -0.4740835183569765 -0.6147455029136941 -1.0766448236801685 0.0
N N -0.6519209901334179 -0.759814230511161 -1.1957248434002024 0.0
C C -0.30343387020753104 -0.4689522482457525 -1.0962585311272899 0.0
C C -0.2999322181964181 -0.41240174477018243 -1.1544143777914404 0.0
C C -0.15280115667132543 -0.4137624923841332 -1.1825973163593557 0.0
H H -0.07789115667132539 -0.44462249238413326 -1.1699573163593557 0.0
C C -0.084345138301419 -0.38404554592467904 -1.2351412731440676 0.0
H H 0.014564861698581013 -0.38460554592467905 -1.2568012731440676 0.0
C C -0.18571532585298736 -0.3418997861939075 -1.2425545163227523 0.0
C C -0.3477948973598454 -0.32923165515812386 -1.2132679418158772 0.0
C C -0.3823177409044818 -0.38127849049298435 -1.1646791968397308 0.0
H H -0.4799277409044818 -0.3792484904929843 -1.1421491968397308 0.0
C C -0.5376297854468255 -0.7846368060681905 -1.2423716638373663 0.0
C C -0.7902851466275261 -0.7888603219327713 -1.1947617197094222 0.0
C C -0.5640045346548567 -0.6593411025654298 -1.0442809543773852 0.0
H H -0.5924145346548567 -0.65661110256543 -0.9961509543773853 0.0
C C -0.6095017043650569 -0.7178833372100677 -1.0829972637025307 0.0
H H -0.680311704365057 -0.7462533372100676 -1.0644572637025307 0.0
C C -0.5964443730404305 -0.7104130962033096 -1.168366907570226 0.0
C C -0.4848555774059203 -0.676231467993375 -1.1735283212375665 0.0
H H -0.45654557740592033 -0.676401467993375 -1.2216883212375667 0.0
C C -0.3972612472860332 -0.6357306868299668 -1.131155074668544 0.0
H H -0.3237712472860332 -0.6072006868299669 -1.147515074668544 0.0
O O -0.25409539706614154 -0.6418884803841665 -0.9068986434635772 0.0
O O -0.10048609216773938 -0.6214717586997804 -0.9875040489651722 0.0
O O 0.1437900348708569 -0.33112002530271034 -0.7689514613521528 0.0
O O -0.3527879534064613 -0.3830901183821414 -0.6704035166292118 0.0
N N -0.12069220008777183 -0.3650596127219169 -0.7279565556782156 0.0
N N -0.24036633743603264 -0.4840583686213363 -0.8968048514709029 0.0
C C -0.11544231137263009 -0.656867112629399 -0.9292515708872355 0.0
C C -0.07239939024404012 -0.7025962041189955 -0.9139477076496033 0.0
C C 0.10935966796926407 -0.7206673289160694 -0.9460297757913948 0.0
H H 0.14356966796926407 -0.6959373289160695 -0.9832897757913946 0.0
C C -0.19652600391411007 -0.2734792629259237 -0.5833248595081099 0.0
H H -0.29493600391411007 -0.2823492629259237 -0.5635848595081099 0.0
C C -0.14127310070772092 -0.29664065506327214 -0.6434995506204944 0.0
C C 0.028029198573279745 -0.29615376115566217 -0.6643653925232084 0.0
C C -0.08649272776782847 -0.7519435597155484 -0.8523835123182123 0.0
H H -0.1869827277678285 -0.7445135597155483 -0.8336435123182123 0.0
C C -0.2261653443125415 -0.3571495632611395 -0.6896153466461037 0.0
C C 0.025146526396448085 -0.33551529726922485 -0.7301783688540772 0.0
C C -0.25926657653333063 -0.5005905061570024 -0.8198672696475872 0.0
H H -0.31478657653333064 -0.5363605061570025 -0.8096372696475872 0.0
C C -0.22616693235202243 -0.4539555844856885 -0.7833169719205588 0.0
H H -0.25447693235202246 -0.4624255844856885 -0.7361769719205589 0.0
C C -0.11633360882422163 -0.4219317105769305 -0.7874458194284066 0.0
C C -0.10359179034850036 -0.3934916811637853 -0.8612743248841417 0.0
H H -0.04361179034850037 -0.35906168116378534 -0.8731343248841418 0.0
C C -0.1279146258772562 -0.4476748049524215 -0.9008601300675557 0.0
H H -0.09616462587725619 -0.4410548049524215 -0.9479401300675557 0.0
Cd Cd 0.3132397544972069 -1.0556775030262153 0.47733187854518005 0.0
O O 0.41807454430402513 -0.9531857715703775 0.5599701053240458 0.0
O O 0.18737846393025923 -1.0019447042034992 0.5720137008156452 0.0
O O 0.9108826221879897 -1.2715841766385128 0.6679503312283873 0.0
O O 0.41885360205120764 -1.277702408060347 0.7765006594415096 0.0
N N 0.42634882036192884 -1.1152132738928184 0.5525447675688029 0.0
N N 0.6577469452237348 -1.2541288959870323 0.707182833611066 0.0
C C 0.29765837890604946 -0.9671012544206753 0.5789624019328014 0.0
C C 0.26972259667767107 -0.9136926614137518 0.6374626297669509 0.0
C C 0.11079955470982399 -0.9196248897783953 0.6827572037156443 0.0
H H 0.035889554709823995 -0.9504848897783955 0.6701172037156443 0.0
C C 0.0943143344151311 -0.8806638311517572 0.7251031133231668 0.0
H H -0.004595665584868941 -0.8812238311517572 0.7467631133231668 0.0
C C 0.2315676580124105 -0.8431196765943242 0.7469958499474497 0.0
C C 0.37877610522667876 -0.8449515603861263 0.7222706385179113 0.0
C C 0.4000578593600293 -0.8836846314534836 0.6698042196105248 0.0
H H 0.4976678593600294 -0.8816546314534837 0.6472742196105248 0.0
C C 0.5302990424677035 -1.285684275546298 0.7478664561834705 0.0
C C 0.7750072232309397 -1.2790319760607596 0.6854136890709679 0.0
C C 0.5598729344968064 -1.1591863366030486 0.5539143189084517 0.0
H H 0.5882829344968067 -1.1564563366030485 0.5057843189084518 0.0
C C 0.6065116501422801 -1.1986319471955225 0.5870618971642264 0.0
H H 0.6773216501422802 -1.2270019471955225 0.5685218971642263 0.0
C C 0.5748254792001027 -1.2164109328525312 0.6632279579011807 0.0
C C 0.46582599847495887 -1.1636070971428734 0.6706009770254666 0.0
H H 0.43751599847495887 -1.1637770971428736 0.7187609770254665 0.0
C C 0.4189228941958519 -1.128735133080653 0.6352727127089036 0.0
H H 0.3454328941958518 -1.100205133080653 0.6516327127089039 0.0
O O 0.29099737680460125 -1.1404777401607455 0.41789177635961827 0.0
O O 0.08275039802191624 -1.124867834278637 0.4871396449717206 0.0
O O -0.17100417833951723 -0.831301987549899 0.2608600933586941 0.0
O O 0.3168874285174863 -0.8725898743849756 0.17339469066436713 0.0
N N 0.11504993577427197 -0.861677828029468 0.22379312328019035 0.0
N N 0.2278725288551958 -0.989867385738132 0.39384301356241713 0.0
C C 0.14661021364990426 -1.1576483187742448 0.44185847095835323 0.0
C C 0.057791216923712196 -1.205763979783256 0.4121380432664461 0.0
C C -0.06703863976120024 -1.2227534738616872 0.4486829232647089 0.0
H H -0.10124863976120026 -1.1980234738616873 0.4859429232647089 0.0
C C 0.18584391657217703 -0.7685497504098892 0.07786172866481252 0.0
H H 0.2842539165721771 -0.7774197504098892 0.05812172866481255 0.0
C C 0.11653890868761325 -0.7905542981410592 0.13599161357372885 0.0
C C 0.013621959029035036 -0.7913356065724712 0.16968035301627768 0.0
C C 0.11356111004914163 -1.2505008561166218 0.3622976774549105 0.0
H H 0.2140511100491416 -1.243070856116622 0.3435576774549105 0.0
C C 0.21127948897972612 -0.8509301766435418 0.19136927190661163 0.0
C C -0.05177975612967954 -0.83163247821327 0.2172742738127083 0.0
C C 0.2803576054943693 -1.0047172792293597 0.3232722029679996 0.0
H H 0.3358776054943693 -1.0404872792293598 0.3130422029679996 0.0
C C 0.2284345367378636 -0.966712556252895 0.2640048689209897 0.0
H H 0.2567445367378636 -0.975182556252895 0.2168648689209897 0.0
C C 0.14420492908269752 -0.9123127525392669 0.28434015525404627 0.0
C C 0.11463497667549258 -0.8998286676309553 0.35351843439940145 0.0
H H 0.05465497667549258 -0.8653986676309553 0.36537843439940143 0.0
C C 0.15309573092101786 -0.9464712278231696 0.4022749375814389 0.0
H H 0.12134573092101786 -0.9398512278231697 0.44935493758143885 0.0
