_cell_length_a 8.39304
_cell_length_b 22.23511
_cell_length_c 18.74218
_cell_angle_alpha 90.0
_cell_angle_beta 94.0312
_cell_angle_gamma 90.0
_symmetry_space_group_name_H-M         'P 1'
_symmetry_Int_Tables_number            1
loop_
_symmetry_equiv_pos_as_xyz
   'x, y, z'
                         
loop_
_atom_site_label
_atom_site_type_symbol
_atom_site_fract_x 
_atom_site_fract_y
_atom_site_fract_z
_atom_site_charge
Cd Cd 0.3231046409360626 0.5615840132419105 0.9820801863138316 0.0
O O 0.41343377844404305 0.4611775000696807 1.0540326450911774 0.0
O O 0.218307274164018 0.5051396108760536 1.086926067257811 0.0
O O 0.8973438264218034 0.7656155967534523 1.167430792049913 0.0
O O 0.40130506703404834 0.77121448522741 1.2684665140830187 0.0
N N 0.4675363869773866 0.6260269912232655 1.0583432621920539 0.0
N N 0.638698326173078 0.7615682395017731 1.1937747771004072 0.0
C C 0.3023860225195332 0.46465753809529303 1.0985227617851658 0.0
C C 0.25981529450221136 0.4192562255080025 1.1552140799990136 0.0
C C 0.13543392601096058 0.4280852878307951 1.1768510997854897 0.0
H H 0.060523926010960544 0.4589452878307951 1.1642110997854895 0.0
C C 0.11194256616373896 0.37636862067721755 1.235946905057915 0.0
H H 0.013032566163738943 0.37692862067721755 1.2576069050579153 0.0
C C 0.1931787962309883 0.3363826425324786 1.2499782440086338 0.0
C C 0.3427977787243248 0.33613505453217374 1.2152388807285517 0.0
C C 0.37814164587643767 0.37832923537763197 1.1599909997240034 0.0
H H 0.4757516458764378 0.37629923537763194 1.1374609997240035 0.0
C C 0.5556855375738202 0.7895205041517441 1.2461469170102486 0.0
C C 0.7824348169641553 0.7871207772053692 1.1926878283683486 0.0
C C 0.5715650872699892 0.6565839105771393 1.0412654326150501 0.0
H H 0.5999750872699893 0.6538539105771394 0.9931354326150502 0.0
C C 0.6216787397493884 0.7128593420574937 1.0861068417354802 0.0
H H 0.6924887397493884 0.7412293420574937 1.0675668417354802 0.0
C C 0.5935625836285718 0.7091535009918316 1.1527214754255901 0.0
C C 0.4793773391128839 0.6698891785377836 1.1864922049324245 0.0
H H 0.45106733911288394 0.6700591785377836 1.2346522049324247 0.0
C C 0.4316598970891271 0.6271833396283151 1.1273962342896282 0.0
H H 0.3581698970891271 0.5986533396283151 1.1437562342896284 0.0
O O 0.2545316940738015 0.6446153235982068 0.9051583912464347 0.0
O O 0.07912288528896746 0.6219608871453679 0.979498264389799 0.0
O O -0.16095712989084685 0.34201020578485397 0.7577657214148059 0.0
O O 0.33147462782323855 0.37117499570401735 0.6804346327032298 0.0
N N 0.10283591285095144 0.37478157947705626 0.7355091519773053 0.0
N N 0.232406689521568 0.488363800152165 0.900039445388958 0.0
C C 0.1444983008779534 0.6472237835826778 0.9388479141197729 0.0
C C 0.03631484589444554 0.7031376268656709 0.9160752302635402 0.0
C C -0.08847338294122774 0.7154688901296993 0.9379979272421072 0.0
H H -0.12268338294122774 0.6907388901296994 0.9752579272421071 0.0
C C 0.2144864276850886 0.26483428091111977 0.5932561027114975 0.0
H H 0.31289642768508863 0.2737042809111198 0.5735161027114976 0.0
C C 0.15407891510342422 0.2998577510815519 0.6501097314880314 0.0
C C -0.02104253639686304 0.2897510700923323 0.6773205774979815 0.0
C C 0.10886790695749818 0.7408021954799566 0.8480386770247466 0.0
H H 0.2093579069574982 0.7333721954799567 0.8292986770247466 0.0
C C 0.20671286055847735 0.35816518403466213 0.6774586391811721 0.0
C C -0.033913811010527845 0.33342738965568003 0.7304493576758023 0.0
C C 0.24984324737907365 0.5053498061022174 0.8356042842851703 0.0
H H 0.3053632473790736 0.5411198061022174 0.8253742842851703 0.0
C C 0.22480574039479678 0.4588935792289082 0.7732752887684634 0.0
H H 0.2531157403947968 0.4673635792289082 0.7261352887684636 0.0
C C 0.14844821323122043 0.4143834169428112 0.7845203601260323 0.0
C C 0.10245147424173283 0.40429430895636453 0.8631245880331236 0.0
H H 0.042471474241732844 0.3698643089563646 0.8749845880331237 0.0
C C 0.14337677772675628 0.4436647764906494 0.8994012793446373 0.0
H H 0.11162677772675626 0.4370447764906494 0.9464812793446373 0.0
Cd Cd -0.31763510132636175 1.0505464825799595 -0.48804682268641075 0.0
O O -0.4153734026956977 0.9586161141250278 -0.5620160209588603 0.0
O O -0.21998716157034484 1.0042316904222655 -0.575691157682152 0.0
O O -0.8902276057105578 1.2714701974757654 -0.6687702430578434 0.0
O O -0.40408748912793363 1.273514881698368 -0.759409271357756 0.0
N N -0.47295401953151206 1.122127614852007 -0.5579029939892552 0.0
N N -0.6293463034677185 1.2564966157475361 -0.6970256638222144 0.0
C C -0.2979430736170128 0.9706860516346354 -0.5970639380454545 0.0
C C -0.27136971902797175 0.9218298421166503 -0.6440472862610089 0.0
C C -0.13458248223114616 0.9283085842800869 -0.6845436154258377 0.0
H H -0.05967248223114618 0.9591685842800871 -0.6719036154258378 0.0
C C -0.08594370143819648 0.8810366596106165 -0.7389854325373251 0.0
H H 0.01296629856180354 0.8815966596106165 -0.7606454325373251 0.0
C C -0.19640634437617233 0.8382203403418299 -0.7424206950300375 0.0
C C -0.3472851395473299 0.8337642289025994 -0.7169593674509379 0.0
C C -0.37943770837773405 0.8795824013039956 -0.6691391112361063 0.0
H H -0.4770477083777342 0.8775524013039956 -0.6466091112361062 0.0
C C -0.54564792004125 1.2861881530947648 -0.7550427270680506 0.0
C C -0.7862410866440082 1.2923995449051011 -0.6970972646527335 0.0
C C -0.545341150156704 1.1578432783278754 -0.5370763403851989 0.0
H H -0.5737511501567041 1.1551132783278752 -0.4889463403851991 0.0
C C -0.6064922782539863 1.207155105221747 -0.582166894041466 0.0
H H -0.6773022782539865 1.235525105221747 -0.563626894041466 0.0
C C -0.5686854441348759 1.2051904327261291 -0.6495232363432051 0.0
C C -0.4646765926249782 1.1688679036448117 -0.6791450067562147 0.0
H H -0.4363665926249781 1.1690379036448117 -0.7273050067562146 0.0
C C -0.39964834850712133 1.1216604427877803 -0.6260818971424047 0.0
H H -0.32615834850712133 1.0931304427877804 -0.6424418971424048 0.0
O O -0.28622442103157686 1.143397118255118 -0.4034224663666378 0.0
O O -0.09169514226627577 1.127725138762533 -0.49408472218303373 0.0
O O 0.1517690993779626 0.8343804064789626 -0.26773339491814013 0.0
O O -0.3437625041582388 0.869281339073385 -0.16903230877058661 0.0
N N -0.12420244929869617 0.8736775049662467 -0.2340701645059438 0.0
N N -0.23284582162711556 0.9948960041508836 -0.39168374289246216 0.0
C C -0.13453261352068696 1.1586175391833071 -0.4418288361392688 0.0
C C -0.04826817596997701 1.2095543275613259 -0.40521769821022463 0.0
C C 0.09120553931850638 1.2218569964892927 -0.4441016210036399 0.0
H H 0.12541553931850635 1.1971269964892928 -0.48136162100363994 0.0
C C -0.20616768150099937 0.769439973560358 -0.0952049498360862 0.0
H H -0.3045776815009994 0.778309973560358 -0.07546494983608623 0.0
C C -0.13163984220775143 0.7954465323894084 -0.13700374727770773 0.0
C C -0.007876303491743142 0.7892831331023074 -0.17821242037488833 0.0
C C -0.11054996578072347 1.248862416715106 -0.3582266735677325 0.0
H H -0.21103996578072345 1.241432416715106 -0.33948667356773254 0.0
C C -0.21922419042149555 0.857176963198055 -0.18724675134724394 0.0
C C 0.029931886824270806 0.8377721928328202 -0.22640588751372903 0.0
C C -0.2461082921195315 1.0030437419648646 -0.33193605710970886 0.0
H H -0.30162829211953146 1.0388137419648646 -0.3217060571097089 0.0
C C -0.21006845267591504 0.9674166824247878 -0.2697126239613666 0.0
H H -0.23837845267591504 0.9758866824247878 -0.2225726239613666 0.0
C C -0.14773678850131616 0.9115453174672858 -0.28184147521066655 0.0
C C -0.08949038529692425 0.9070169045228449 -0.3639457592337552 0.0
H H -0.029510385296924263 0.8725869045228449 -0.3758057592337552 0.0
C C -0.12440704433464186 0.9438862616161736 -0.40740939147286276 0.0
H H -0.09265704433464186 0.9372662616161735 -0.4544893914728627 0.0
Cd Cd -0.3216712290869877 -0.5609259496599629 -0.9786416238702282 0.0
O O -0.41927208848899367 -0.4653668741124662 -1.0494586757525504 0.0
O O -0.20235800665700526 -0.5127912100754128 -1.0736246216122662 0.0
O O -0.8758772785940382 -0.7695804558927166 -1.158807349469042 0.0
O O -0.41315329852042343 -0.7665635158446544 -1.2722357407907017 0.0
N N -0.45122046884109934 -0.6163372987617854 -1.0663480869194975 0.0
N N -0.6385275127551746 -0.7589964432371603 -1.1959283764630113 0.0
C C -0.31290788164902367 -0.46715062160136744 -1.0834707936845174 0.0
C C -0.2752614694578893 -0.4223978048493225 -1.1403507052240562 0.0
C C -0.1282487837205657 -0.42446260833987326 -1.1847422575649498 0.0
H H -0.053338783720565636 -0.4553226083398733 -1.1721022575649498 0.0
C C -0.09090147680421878 -0.3759721110834923 -1.2343968607360865 0.0
H H 0.008008523195781249 -0.3765321110834923 -1.2560568607360865 0.0
C C -0.21282505945638316 -0.3359781963131326 -1.2455653706104672 0.0
C C -0.34660296762256504 -0.34216503571296186 -1.2140197997500293 0.0
C C -0.37119655001997803 -0.3779538892498292 -1.166325982929141 0.0
H H -0.4688065500199781 -0.3759238892498292 -1.143795982929141 0.0
C C -0.5357605128341206 -0.7893959456338585 -1.2572003887296619 0.0
C C -0.7873882151041995 -0.7926325370379822 -1.197125309299423 0.0
C C -0.563192330503377 -0.6628789110766797 -1.0409567724188986 0.0
H H -0.5916023305033771 -0.66014891107668 -0.9928267724188987 0.0
C C -0.6180867993498442 -0.7129889855132133 -1.081881256523542 0.0
H H -0.6888967993498444 -0.7413589855132132 -1.063341256523542 0.0
C C -0.5885391194694671 -0.7118185779075967 -1.1588562836700005 0.0
C C -0.4909438920168407 -0.6728795394743261 -1.1797491610426492 0.0
H H -0.4626338920168407 -0.6730495394743261 -1.2279091610426494 0.0
C C -0.4041837323493541 -0.6259655589613087 -1.1257601363201153 0.0
H H -0.3306937323493541 -0.5974355589613086 -1.1421201363201154 0.0
O O -0.2901582807333854 -0.6384275783171856 -0.9095741951600802 0.0
O O -0.09698109831986407 -0.6272924150248586 -0.9825098463524581 0.0
O O 0.14076943521994947 -0.34159130377936037 -0.7559299658310918 0.0
O O -0.33981862547142117 -0.38205502737774216 -0.6728713391451532 0.0
N N -0.12069917050166618 -0.3696694499435157 -0.7298833080773427 0.0
N N -0.23331501535950627 -0.49836888833276316 -0.8919671234698476 0.0
C C -0.14002914434539407 -0.6539318768943178 -0.9315146796328535 0.0
C C -0.04860747106293284 -0.7090548598608369 -0.9126763000012929 0.0
C C 0.08572078652347657 -0.7143008436071749 -0.9364342943630981 0.0
H H 0.11993078652347658 -0.689570843607175 -0.973694294363098 0.0
C C -0.1806127900715779 -0.26990064717893403 -0.5837801043256702 0.0
H H -0.2790227900715779 -0.2787706471789341 -0.5640401043256702 0.0
C C -0.13615383260088273 -0.2946162496330552 -0.6436906664802119 0.0
C C -0.008513227846244257 -0.2900481929400911 -0.6634025731405533 0.0
C C -0.10480964711753665 -0.737899983110281 -0.8556133602549569 0.0
H H -0.20529964711753668 -0.7304699831102811 -0.836873360254957 0.0
C C -0.2128833836432268 -0.3467384139778627 -0.6787228084830227 0.0
C C 0.028810305985336168 -0.33139994692078495 -0.7277050799042647 0.0
C C -0.24548310030145903 -0.506217948450187 -0.8267511521376559 0.0
H H -0.30100310030145905 -0.541987948450187 -0.816521152137656 0.0
C C -0.2360777780671029 -0.46952224984712193 -0.7692846914704782 0.0
H H -0.2643877780671029 -0.47799224984712185 -0.7221446914704783 0.0
C C -0.1453826839149844 -0.41202926433693843 -0.7883303899382786 0.0
C C -0.08847305781302697 -0.4037427972354845 -0.850806743733663 0.0
H H -0.028493057813026964 -0.36931279723548455 -0.862666743733663 0.0
C C -0.1604492691913019 -0.44735045007333635 -0.9091273675904917 0.0
H H -0.12869926919130187 -0.4407304500733363 -0.9562073675904917 0.0
Cd Cd 0.30323497389891046 -1.0535642753857286 0.478628168412918 0.0
O O 0.4189176004161906 -0.9631816468872572 0.551206964386195 0.0
O O 0.1907278179005282 -1.0079037999350098 0.5782414879816328 0.0
O O 0.9094082718740728 -1.267288268866071 0.659943006348777 0.0
O O 0.41383938158157935 -1.2748624085750546 0.766005664658767 0.0
N N 0.44488406935456376 -1.1247435635225276 0.5723715741153353 0.0
N N 0.6544503593097972 -1.2540103370472104 0.6932894623162892 0.0
C C 0.3139464643754932 -0.9672465604667468 0.5938314943624373 0.0
C C 0.2765218543076799 -0.9198303602640554 0.6475678926872028 0.0
C C 0.12145824746525422 -0.9268099632634821 0.6813406467042135 0.0
H H 0.04654824746525421 -0.9576699632634823 0.6687006467042135 0.0
C C 0.08498734333996584 -0.8843874869026522 0.7347948009877928 0.0
H H -0.013922656660034194 -0.8849474869026522 0.7564548009877928 0.0
C C 0.2029299841672136 -0.839862823693786 0.749132741878 0.0
C C 0.36978458401821485 -0.8376877206630542 0.7220361598535028 0.0
C C 0.382612704411027 -0.8754692979075056 0.6701176888213981 0.0
H H 0.48022270441102716 -0.8734392979075056 0.647587688821398 0.0
C C 0.5317000549064269 -1.2831234910860634 0.7529210059332073 0.0
C C 0.7816281783928289 -1.284576181983229 0.7003962692936784 0.0
C C 0.5552485272175418 -1.1589575191355423 0.538186441786014 0.0
H H 0.5836585272175419 -1.1562275191355422 0.49005644178601415 0.0
C C 0.6132999988779344 -1.2067441751076267 0.5928665427655494 0.0
H H 0.6841099988779346 -1.2351141751076269 0.5743265427655493 0.0
C C 0.5723435944726679 -1.2145738005216842 0.6549683847960373 0.0
C C 0.4659204478659389 -1.1711524182418473 0.6806533617065353 0.0
H H 0.43761044786593883 -1.1713224182418474 0.7288133617065353 0.0
C C 0.40675149332982885 -1.1294883542288212 0.6361671197402721 0.0
H H 0.33326149332982885 -1.1009583542288213 0.6525271197402723 0.0
O O 0.2686928675032197 -1.1410148512913307 0.4116128843078768 0.0
O O 0.0847736448474493 -1.1267790086627583 0.48839065787899916 0.0
O O -0.12771460562233938 -0.8393324966160816 0.2636239365905852 0.0
O O 0.34453765593612473 -0.875574923533282 0.16837155000535134 0.0
N N 0.10658553179438572 -0.8694045582141688 0.231006095985438 0.0
N N 0.20667784925812416 -0.9925790315914023 0.39936399610953677 0.0
C C 0.13431481425661917 -1.1521846671343798 0.4331570468303879 0.0
C C 0.03622864699505938 -1.2123035784112797 0.4120584825976255 0.0
C C -0.11749116721169856 -1.216458469870162 0.43160744328172895 0.0
H H -0.15170116721169855 -1.191728469870162 0.46886744328172897 0.0
C C 0.18650796196457958 -0.7638907440697699 0.09065758600142185 0.0
H H 0.2849179619645796 -0.7727607440697699 0.07091758600142187 0.0
C C 0.14890679502489992 -0.7969298809075884 0.14458732547596823 0.0
C C -0.004795773343958275 -0.7877463112432014 0.16755541625237227 0.0
C C 0.11345081436946045 -1.242430044139721 0.35704636706859505 0.0
H H 0.21394081436946044 -1.235000044139721 0.33830636706859507 0.0
C C 0.2118959334240545 -0.8513220726832468 0.17584455429831622 0.0
C C -0.029278807094862226 -0.8366949494371643 0.22636683325534496 0.0
C C 0.27654346095895777 -1.0017791932512379 0.3308416018434127 0.0
H H 0.3320634609589577 -1.037549193251238 0.3206116018434128 0.0
C C 0.2266906180189299 -0.9615393566218426 0.27505471398369097 0.0
H H 0.25500061801892987 -0.9700093566218426 0.22791471398369098 0.0
C C 0.14621577796182691 -0.9096829020228526 0.29141257426048117 0.0
C C 0.11318436960659499 -0.9022858930622099 0.36450718350064587 0.0
H H 0.053204369606595005 -0.8678558930622099 0.37636718350064585 0.0
C C 0.15798369124036524 -0.9495146615506528 0.4078276855770421 0.0
H H 0.1262336912403652 -0.9428946615506528 0.454907685577042 0.0
