_cell_length_a 8.39304
_cell_length_b 22.23511
_cell_length_c 18.74218
_cell_angle_alpha 90.0
_cell_angle_beta 94.0312
_cell_angle_gamma 90.0
_symmetry_space_group_name_H-M         'P 1'
_symmetry_Int_Tables_number            1
loop_
_symmetry_equiv_pos_as_xyz
   'x, y, z'
                         
loop_
_atom_site_label
_atom_site_type_symbol
_atom_site_fract_x 
_atom_site_fract_y
_atom_site_fract_z
_atom_site_charge
Cd Cd 0.33080882925419136 0.5584318483979921 0.9862929012562562 0.0
O O 0.4268766309299257 0.4624036770739911 1.0480324558823175 0.0
O O 0.19644272153598652 0.5072952070799627 1.0720398436555303 0.0
O O 0.8913162898522381 0.7677049918804453 1.1675788364212036 0.0
O O 0.41746096696986335 0.7720995722226544 1.2666616404460547 0.0
N N 0.4438347931407244 0.6243640123930113 1.057077450768195 0.0
N N 0.6404635436776612 0.7637684053693864 1.202541689547016 0.0
C C 0.30426798260775484 0.46821222273230845 1.0962185756612222 0.0
C C 0.25380787037139896 0.4243860022525741 1.1492552604178896 0.0
C C 0.13710681699720978 0.4214893388830522 1.1834729023032626 0.0
H H 0.06219681699720975 0.45234933888305223 1.1708329023032624 0.0
C C 0.09343554860867853 0.37895213423735025 1.2301465331393064 0.0
H H -0.005474451391321502 0.37951213423735025 1.2518065331393065 0.0
C C 0.23243076393487133 0.3314342221360478 1.2500243921534806 0.0
C C 0.35923481937808144 0.33547498724509844 1.2103438764312795 0.0
C C 0.39870562155056266 0.373192526171145 1.1595974409572225 0.0
H H 0.49631562155056275 0.371162526171145 1.1370674409572226 0.0
C C 0.5589966726510611 0.7879777373614625 1.258946000474551 0.0
C C 0.7926211724096056 0.7816149846232954 1.196843046420419 0.0
C C 0.5781644958782428 0.6582188764428842 1.0436339879920493 0.0
H H 0.6065744958782427 0.6554888764428844 0.9955039879920494 0.0
C C 0.6117795235348201 0.7125164397525267 1.0831859191710975 0.0
H H 0.6825895235348202 0.7408864397525265 1.0646459191710977 0.0
C C 0.5966404378798988 0.7076082802233372 1.1491302886153703 0.0
C C 0.4736163113639244 0.664698014548567 1.1747847550011925 0.0
H H 0.44530631136392446 0.664868014548567 1.2229447550011927 0.0
C C 0.42298507677790365 0.622165577506236 1.132508098018657 0.0
H H 0.34949507677790365 0.593635577506236 1.148868098018657 0.0
O O 0.2503666751065216 0.6479575588706565 0.9030254114068395 0.0
O O 0.06921356670282312 0.6268692692706636 0.9845007321887629 0.0
O O -0.13458877728377341 0.3386358263458927 0.7589363555611898 0.0
O O 0.34482428973076656 0.3770970864614793 0.6744188453417786 0.0
N N 0.10483043919527321 0.37048245806447666 0.7372353431660053 0.0
N N 0.23714111145391312 0.49975523311932535 0.8967841029932606 0.0
C C 0.1434832178447441 0.6503744835878797 0.9366211924574552 0.0
C C 0.034892577451052134 0.710064784186905 0.9029810406084218 0.0
C C -0.11374164253968938 0.7190343289647261 0.936431647312406 0.0
H H -0.1479516425396894 0.6943043289647262 0.9736916473124059 0.0
C C 0.19618362634645303 0.26223094846367956 0.5943003809546735 0.0
H H 0.29459362634645303 0.27110094846367955 0.5745603809546734 0.0
C C 0.13681077397095734 0.30598254499977096 0.6466121041624023 0.0
C C 0.010434547244229516 0.28667206801672973 0.6700336052171136 0.0
C C 0.11315783108620409 0.7386480527592018 0.8560302731114849 0.0
H H 0.2136478310862041 0.7312180527592017 0.8372902731114849 0.0
C C 0.21861863258302736 0.34564317783037474 0.6799071078492931 0.0
C C -0.0278970080907449 0.3270883282033671 0.7394578489720349 0.0
C C 0.24982643875454189 0.5088188822977068 0.819967495523002 0.0
H H 0.30534643875454187 0.5445888822977069 0.809737495523002 0.0
C C 0.21836699668125864 0.45715414990140063 0.7826540845431165 0.0
H H 0.24667699668125861 0.4656241499014006 0.7355140845431165 0.0
C C 0.14005058667180523 0.40952758461870664 0.7933790679027497 0.0
C C 0.10315108606519427 0.4012673157473775 0.8609688730647755 0.0
H H 0.043171086065194285 0.36683731574737755 0.8728288730647756 0.0
C C 0.14038831220726988 0.4518971507705782 0.8993710067672652 0.0
H H 0.10863831220726985 0.4452771507705781 0.9464510067672652 0.0
Cd Cd -0.2961298610513369 1.0587125354102818 -0.48842263550992987 0.0
O O -0.4350121261542828 0.9587546616561203 -0.5586812409230855 0.0
O O -0.21270312137107936 1.0077333188423534 -0.582663150321369 0.0
O O -0.8876856291115809 1.2765292193770745 -0.660989670305558 0.0
O O -0.43046009634001364 1.267757389049492 -0.7616034664266944 0.0
N N -0.47284533002592405 1.1264334042698485 -0.5711637249458985 0.0
N N -0.6409036189563871 1.2615222861814483 -0.7045749988131269 0.0
C C -0.2887875290244522 0.9645833460274945 -0.5937529615559075 0.0
C C -0.26264621401802857 0.9186081704821242 -0.6373210073939172 0.0
C C -0.1313243290881076 0.9231971908631511 -0.6706937303136137 0.0
H H -0.056414329088107604 0.9540571908631512 -0.6580537303136137 0.0
C C -0.09999619056474797 0.8772609324107846 -0.7359199355262251 0.0
H H -0.001086190564747933 0.8778209324107846 -0.7575799355262252 0.0
C C -0.2280346215921954 0.8342584225631491 -0.7465374354913816 0.0
C C -0.37011515307775783 0.8324759162006646 -0.7160720459734319 0.0
C C -0.3963659336417208 0.8751167114063032 -0.6589377867192757 0.0
H H -0.4939759336417209 0.8730867114063032 -0.6364077867192757 0.0
C C -0.5688983755741029 1.2902669585613684 -0.7609441536702776 0.0
C C -0.8036633402176768 1.2854912963522638 -0.6938080352586804 0.0
C C -0.5691550369972393 1.1593606387378126 -0.5505088402166792 0.0
H H -0.5975650369972394 1.1566306387378125 -0.5023788402166793 0.0
C C -0.6359040568080604 1.2105638998048918 -0.5819692368072619 0.0
H H -0.7067140568080605 1.2389338998048918 -0.5634292368072618 0.0
C C -0.571497015658875 1.2094248778772472 -0.6633241129610686 0.0
C C -0.4717851900473164 1.1646420675167357 -0.6712769315151481 0.0
H H -0.44347519004731634 1.1648120675167357 -0.7194369315151481 0.0
C C -0.41566789186603337 1.1173545407437118 -0.629518689536776 0.0
H H -0.34217789186603337 1.0888245407437118 -0.6458786895367762 0.0
O O -0.2769048473739784 1.1411582712992376 -0.41728531306284167 0.0
O O -0.0932060277826115 1.127974933307674 -0.491509749879044 0.0
O O 0.13196293079089474 0.8341084816908513 -0.2600908368732655 0.0
O O -0.33524100005709967 0.8821721601692184 -0.18190336992714606 0.0
N N -0.10711645798925694 0.869978961651827 -0.23454162298135334 0.0
N N -0.23907794643078967 0.9948685630314904 -0.39051425856602584 0.0
C C -0.14429745794675095 1.1504074887218438 -0.43419940423955994 0.0
C C -0.050552085358664504 1.2121145426892137 -0.4065097694109928 0.0
C C 0.09444007179940624 1.2251355361762 -0.4363544100331666 0.0
H H 0.12865007179940624 1.2004055361762 -0.4736144100331666 0.0
C C -0.19905952654803677 0.7734230398693355 -0.09398246633317822 0.0
H H -0.2974695265480367 0.7822930398693355 -0.07424246633317826 0.0
C C -0.15164363936627567 0.7989761875810374 -0.1513215848861331 0.0
C C 0.027564314598202317 0.7884433566802487 -0.17274337039293666 0.0
C C -0.0939174672079681 1.2470220116308723 -0.3502604524713886 0.0
H H -0.1944074672079681 1.2395920116308725 -0.33152045247138867 0.0
C C -0.20312033400765928 0.8452164383380992 -0.17832936123239562 0.0
C C 0.037270174900178116 0.8279437502639113 -0.2351243397638217 0.0
C C -0.24056347910937173 0.9998464900753884 -0.32594530998044136 0.0
H H -0.29608347910937177 1.0356164900753886 -0.31571530998044145 0.0
C C -0.22512755264220227 0.9582144395765502 -0.26539863595724034 0.0
H H -0.25343755264220225 0.9666844395765501 -0.21825863595724035 0.0
C C -0.12730365054783183 0.9106458512471337 -0.2796938955134927 0.0
C C -0.10736863087041552 0.9018857030227789 -0.3641067527144509 0.0
H H -0.04738863087041552 0.8674557030227791 -0.3759667527144509 0.0
C C -0.1528943495732695 0.9445373061098297 -0.40746846510904944 0.0
H H -0.1211443495732695 0.9379173061098297 -0.45454846510904945 0.0
Cd Cd -0.31241622215945275 -0.5553311908060925 -0.9781382903120251 0.0
O O -0.4302231524676387 -0.45720431720648574 -1.0586401653534045 0.0
O O -0.21865262320059803 -0.5112614926232394 -1.0728346615311095 0.0
O O -0.8839809934861578 -0.7706970861585231 -1.1667785046210057 0.0
O O -0.4095865078473457 -0.7770456967040914 -1.259430044441876 0.0
N N -0.4684976954846195 -0.6183703704678117 -1.0676458017171568 0.0
N N -0.6510056313869168 -0.7541503290010834 -1.2011250878491224 0.0
C C -0.3194121498437635 -0.4655724587629296 -1.0991709759694368 0.0
C C -0.2796366434467613 -0.41971811217992316 -1.1449021190702302 0.0
C C -0.13989436678098474 -0.42540092532228907 -1.1872769350028816 0.0
H H -0.0649843667809847 -0.45626092532228907 -1.1746369350028814 0.0
C C -0.08343456537868196 -0.3851320261879009 -1.2227670504955648 0.0
H H 0.015475434621318054 -0.3856920261879009 -1.2444270504955648 0.0
C C -0.21597094649997198 -0.3403511710401917 -1.2513543246243322 0.0
C C -0.35678211663660775 -0.3409127790348158 -1.2227353943637052 0.0
C C -0.3760748400507802 -0.38318491423691464 -1.1639057818196785 0.0
H H -0.4736848400507803 -0.3811549142369146 -1.1413757818196786 0.0
C C -0.5554050056771956 -0.7911546992477995 -1.2514296521912398 0.0
C C -0.7884416465466115 -0.7818667615547439 -1.2062515246872718 0.0
C C -0.5534474902303478 -0.6591325030970053 -1.0402403567235934 0.0
H H -0.5818574902303478 -0.6564025030970054 -0.9921103567235936 0.0
C C -0.6301922165528345 -0.7037268886432192 -1.0879636343982544 0.0
H H -0.7010022165528346 -0.7320968886432191 -1.0694236343982544 0.0
C C -0.6039538262505162 -0.7086841086606771 -1.1586996788388004 0.0
C C -0.4824881528524994 -0.673838254471606 -1.1803271846510341 0.0
H H -0.4541781528524994 -0.6740082544716058 -1.2284871846510343 0.0
C C -0.42058609137903546 -0.620387831609652 -1.1288206860512766 0.0
H H -0.34709609137903547 -0.5918578316096521 -1.1451806860512768 0.0
O O -0.2855550149554209 -0.6346543942128855 -0.916670899143236 0.0
O O -0.10113526731131804 -0.6155622555253019 -0.9883620883301674 0.0
O O 0.14633041743529088 -0.33667366591798464 -0.7621319074409281 0.0
O O -0.3630596299371785 -0.3723301595848496 -0.6816698752543938 0.0
N N -0.1259922312554858 -0.3705082084068301 -0.7304535564651236 0.0
N N -0.2363964853852623 -0.4898375244102718 -0.8936089679098194 0.0
C C -0.15878074571209666 -0.6565854734796975 -0.9385358928894255 0.0
C C -0.06397340808525201 -0.7034636834703735 -0.9144999087872168 0.0
C C 0.0976932311888694 -0.7161799279445418 -0.9319564667608894 0.0
H H 0.13190323118886937 -0.6914499279445419 -0.9692164667608892 0.0
C C -0.19641466583098877 -0.2738055576278302 -0.5853788417949845 0.0
H H -0.29482466583098876 -0.2826755576278302 -0.5656388417949845 0.0
C C -0.1549896597127071 -0.29777934934251715 -0.6517573672518953 0.0
C C 0.01972167974329234 -0.2879897646950615 -0.6651320997944714 0.0
C C -0.1048927696269341 -0.7398121108242963 -0.8630357322575065 0.0
H H -0.20538276962693416 -0.7323821108242964 -0.8442957322575066 0.0
C C -0.20311972106201245 -0.35134901036810806 -0.6903110871248531 0.0
C C 0.026975078990116547 -0.3287230591020816 -0.7292500839043371 0.0
C C -0.2695062483875649 -0.49821396279541774 -0.8299981158252505 0.0
H H -0.3250262483875649 -0.5339839627954179 -0.8197681158252506 0.0
C C -0.2185853624931979 -0.46711336287336364 -0.7701845243514639 0.0
H H -0.24689536249319788 -0.4755833628733636 -0.723044524351464 0.0
C C -0.15297955325792462 -0.41341103424485576 -0.7853543588610832 0.0
C C -0.10679224217865335 -0.39730123267074047 -0.8597741990662991 0.0
H H -0.04681224217865336 -0.3628712326707405 -0.8716341990662992 0.0
C C -0.13019273265488537 -0.44221001643911667 -0.9154853855205398 0.0
H H -0.09844273265488535 -0.4355900164391166 -0.9625653855205398 0.0
Cd Cd 0.31029643057401046 -1.060964975934909 0.49588800737269056 0.0
O O 0.42230277315332354 -0.9577226810124148 0.5610256073721057 0.0
O O 0.21847072807395287 -1.0097510469219582 0.5738979835783753 0.0
O O 0.9103914105474313 -1.2707709470879545 0.6675702227974531 0.0
O O 0.4233714409654903 -1.2781375616220827 0.7714018264422832 0.0
N N 0.45913642010123773 -1.1171312155030817 0.5604951175416792 0.0
N N 0.643938124742409 -1.2615938843948977 0.7023639058541881 0.0
C C 0.288261023364841 -0.9693309401576472 0.5951352840894935 0.0
C C 0.2786086876653859 -0.9213146183972483 0.6522355573630935 0.0
C C 0.11287418333203376 -0.9249986133630131 0.6756380180868861 0.0
H H 0.03796418333203376 -0.9558586133630134 0.6629980180868861 0.0
C C 0.10867515453598942 -0.8766807346455348 0.7387790222651691 0.0
H H 0.009765154535989385 -0.8772407346455348 0.760439022265169 0.0
C C 0.21773019945471792 -0.8378902285979388 0.7573636819459467 0.0
C C 0.3471899354303446 -0.8342079482692452 0.7206586166498001 0.0
C C 0.4042319381768711 -0.8795110941831583 0.6751139844598377 0.0
H H 0.5018419381768712 -0.8774810941831583 0.6525839844598378 0.0
C C 0.5318208105784553 -1.2880893426969826 0.747074031513623 0.0
C C 0.7986512161907136 -1.2941776331932724 0.7058856772674285 0.0
C C 0.5558747305167508 -1.1652376945327825 0.5398457742415076 0.0
H H 0.584284730516751 -1.1625076945327824 0.49171577424150775 0.0
C C 0.6111045087422156 -1.205002959941482 0.5882918309231258 0.0
H H 0.6819145087422157 -1.233372959941482 0.5697518309231256 0.0
C C 0.5658820840223312 -1.2063553485723075 0.6526018956929978 0.0
C C 0.48774948018992637 -1.16336636298038 0.6807281615518239 0.0
H H 0.45943948018992636 -1.16353636298038 0.7288881615518238 0.0
C C 0.40726283460092716 -1.130477618288706 0.6388226796547585 0.0
H H 0.3337728346009271 -1.101947618288706 0.6551826796547586 0.0
O O 0.2525430664475117 -1.1399353803497718 0.40135665269851317 0.0
O O 0.07679502809608481 -1.1252446844041257 0.4923547636900252 0.0
O O -0.13490490474615305 -0.8366597354897066 0.25993088554486354 0.0
O O 0.3435754237076429 -0.8773569540877046 0.16617468100232927 0.0
N N 0.12431731824728937 -0.8614748525078186 0.2326375941930198 0.0
N N 0.21097031228282068 -0.991823673028012 0.3927382270312226 0.0
C C 0.16224880699287428 -1.1607537313555003 0.4374630051292572 0.0
C C 0.055076338318733306 -1.2111820279798182 0.41162585387313233 0.0
C C -0.10689704846693109 -1.2237899852578107 0.4390892300525121 0.0
H H -0.14110704846693106 -1.1990599852578105 0.47634923005251206 0.0
C C 0.1827941970648382 -0.7664144987260958 0.0864611994807879 0.0
H H 0.2812041970648382 -0.7752844987260958 0.06672119948078792 0.0
C C 0.12321333038111897 -0.8008011882614771 0.13880638700280765 0.0
C C -0.024009410503379573 -0.7864272997493855 0.16983101159885036 0.0
C C 0.08806119675690506 -1.2422373538317115 0.35252859161714173 0.0
H H 0.18855119675690504 -1.2348073538317117 0.3337885916171418 0.0
C C 0.20898342436325976 -0.8495425339616199 0.17761877206267543 0.0
C C -0.022650936346251403 -0.8326204089835278 0.2390804000364203 0.0
C C 0.2760112976489776 -0.9988948181125354 0.3254295739753127 0.0
H H 0.3315312976489776 -1.0346648181125355 0.31519957397531273 0.0
C C 0.23460286846078068 -0.9701161686550414 0.2735534501497913 0.0
H H 0.26291286846078066 -0.9785861686550412 0.22641345014979133 0.0
C C 0.15970258087962838 -0.9120079913162756 0.29043348024996235 0.0
C C 0.08628483423763357 -0.89844390163024 0.36243540317481454 0.0
H H 0.026304834237633558 -0.8640139016302402 0.3742954031748145 0.0
C C 0.15308348496593815 -0.9496457330357589 0.4116351125868179 0.0
H H 0.12133348496593813 -0.943025733035759 0.4587151125868178 0.0
