_cell_length_a 8.39304
_cell_length_b 22.23511
_cell_length_c 18.74218
_cell_angle_alpha 90.0
_cell_angle_beta 94.0312
_cell_angle_gamma 90.0
_symmetry_space_group_name_H-M         'P 1'
_symmetry_Int_Tables_number            1
loop_
_symmetry_equiv_pos_as_xyz
   'x, y, z'
                         
loop_
_atom_site_label
_atom_site_type_symbol
_atom_site_fract_x 
_atom_site_fract_y
_atom_site_fract_z
_atom_site_charge
Cd Cd 0.31412666224378705 0.5521195562070049 0.9878814814362082 0.0
O O 0.42679180503569797 0.45803165266527424 1.0547397891844923 0.0
O O 0.20360749629652605 0.5064084519315234 1.0775369841660267 0.0
O O 0.9029861980974463 0.7677369336888838 1.1692730454632063 0.0
O O 0.4229644442670671 0.7711099229633734 1.26570228777724 0.0
N N 0.4370312625450458 0.6216159307641534 1.0587268304315807 0.0
N N 0.6600945334750326 0.7582134629238526 1.1999417458429504 0.0
C C 0.32335732900044484 0.4627475607922673 1.0895946045449276 0.0
C C 0.2861108132011569 0.4167936374593033 1.1445898555363907 0.0
C C 0.1423030081810269 0.4236776005758487 1.1783085857728979 0.0
H H 0.06739300818102685 0.4545376005758487 1.1656685857728977 0.0
C C 0.10044817573328457 0.3854369873385404 1.2349066736128782 0.0
H H 0.0015381757332845606 0.38599698733854043 1.2565666736128782 0.0
C C 0.20431577634418377 0.33455725702920297 1.2465465536470621 0.0
C C 0.35745670443862676 0.3361802264837962 1.2208477069446344 0.0
C C 0.39831638763643284 0.37349112480998226 1.165636585764631 0.0
H H 0.49592638763643293 0.3714611248099822 1.1431065857646308 0.0
C C 0.5670630266780746 0.7847221980558615 1.2574553127180044 0.0
C C 0.7906339001468996 0.7877932106460221 1.199783308925198 0.0
C C 0.5425687828687619 0.6648591256336714 1.0414849795379577 0.0
H H 0.5709787828687618 0.6621291256336715 0.9933549795379579 0.0
C C 0.6230331788843871 0.7023209056928108 1.0870238687414813 0.0
H H 0.6938431788843871 0.7306909056928106 1.0684838687414813 0.0
C C 0.5696080479649575 0.7116390338017369 1.1473285468770686 0.0
C C 0.48314726708310757 0.6693019372992279 1.1747983265006583 0.0
H H 0.45483726708310757 0.6694719372992279 1.2229583265006583 0.0
C C 0.407030274660137 0.6294209272037863 1.134179559557824 0.0
H H 0.333540274660137 0.6008909272037862 1.1505395595578238 0.0
O O 0.271680747651401 0.6373807085971892 0.9067940610130203 0.0
O O 0.10608275150406532 0.6226777986553345 0.9909091052302181 0.0
O O -0.15638581522065614 0.3379140089256705 0.7683565515428384 0.0
O O 0.3318647121934075 0.3729986870631303 0.6772280708241049 0.0
N N 0.12716695101995215 0.36851748058493905 0.7399206561118739 0.0
N N 0.23283216654245262 0.4893819610422832 0.8953339959652823 0.0
C C 0.13362273117604573 0.6525922588067178 0.9394005401422625 0.0
C C 0.04394065215183635 0.7116306218894952 0.9047203781110323 0.0
C C -0.08247834355152771 0.7215276576021876 0.9336293773289801 0.0
H H -0.11668834355152771 0.6967976576021878 0.97088937732898 0.0
C C 0.1983029541923351 0.2707646818162722 0.5880018299449179 0.0
H H 0.2967129541923351 0.2796346818162722 0.5682618299449178 0.0
C C 0.1413917894700149 0.30629445529405025 0.6438224359856302 0.0
C C -0.00245181537465308 0.2899608908923961 0.6696783472609293 0.0
C C 0.11166072812393997 0.7398715056925774 0.8584074099436967 0.0
H H 0.21215072812394 0.7324415056925775 0.8396674099436967 0.0
C C 0.2175991294249362 0.3543549027782001 0.683908083337134 0.0
C C -0.034565403563730196 0.3316825693466701 0.7245625733840061 0.0
C C 0.2664413989358748 0.5016509842939181 0.830213182778051 0.0
H H 0.3219613989358748 0.5374209842939182 0.8199831827780509 0.0
C C 0.22001754481803595 0.4691122576825821 0.7705249978938109 0.0
H H 0.24832754481803593 0.47758225768258206 0.7233849978938109 0.0
C C 0.13585476409604239 0.4162680799622771 0.7917224411339961 0.0
C C 0.10078943362195066 0.40063084793421533 0.8607822267342214 0.0
H H 0.04080943362195067 0.3662008479342153 0.8726422267342215 0.0
C C 0.12407548062994476 0.44611594396106985 0.9112093390648318 0.0
H H 0.09232548062994475 0.43949594396106983 0.9582893390648318 0.0
Cd Cd -0.3066592180265842 1.0511161569400285 -0.4812181379077865 0.0
O O -0.4124313045369467 0.9629943161287546 -0.5615888428178174 0.0
O O -0.22538312670818259 1.0051802191297878 -0.5800734457124401 0.0
O O -0.8906696138238436 1.2644641832998376 -0.656238201062923 0.0
O O -0.4177978378584071 1.2711854947963181 -0.7569600531072012 0.0
N N -0.43991224540983714 1.1214566146038618 -0.5612470338531138 0.0
N N -0.6326740909767266 1.2543109333572162 -0.6932707744854343 0.0
C C -0.3259621062572357 0.9661108495244559 -0.5862803186607007 0.0
C C -0.27975507524613263 0.9198573165466406 -0.6420295490817279 0.0
C C -0.13615354925576617 0.9175362083627474 -0.6734697260075676 0.0
H H -0.061243549255766166 0.9483962083627476 -0.6608297260075676 0.0
C C -0.10425187010811292 0.8789730459376959 -0.725368199535881 0.0
H H -0.005341870108112893 0.8795330459376959 -0.747028199535881 0.0
C C -0.22671044891219905 0.840056916538824 -0.7560453387273711 0.0
C C -0.3465114639141122 0.836538588783614 -0.7264890151732895 0.0
C C -0.390111316795161 0.8807262107208165 -0.6597810960687422 0.0
H H -0.4877213167951611 0.8786962107208165 -0.6372510960687423 0.0
C C -0.5442066549968776 1.2835370686062084 -0.7464415313363056 0.0
C C -0.8048193826550708 1.2871211268492182 -0.7058400208895668 0.0
C C -0.5567061035837836 1.1654467599199967 -0.5419832871643149 0.0
H H -0.5851161035837837 1.1627167599199966 -0.49385328716431504 0.0
C C -0.6356784949325287 1.2088985936087553 -0.5790216050884789 0.0
H H -0.7064884949325287 1.2372685936087553 -0.5604816050884789 0.0
C C -0.5677505139078534 1.210366295144536 -0.6591850626678417 0.0
C C -0.47901705578865583 1.1618942981180174 -0.6811488915294666 0.0
H H -0.45070705578865583 1.1620642981180174 -0.7293088915294665 0.0
C C -0.4339736255856678 1.1279790971731016 -0.6358944740151006 0.0
H H -0.3604836255856678 1.0994490971731017 -0.6522544740151007 0.0
O O -0.2639502787694154 1.1366332807184742 -0.41307800409002127 0.0
O O -0.09666457606884973 1.120682230937239 -0.48349120204385165 0.0
O O 0.14680955054904343 0.8358724219163701 -0.2603082593709334 0.0
O O -0.3484754699497658 0.8795490519750351 -0.16797569479448116 0.0
N N -0.11142479102493873 0.8733675448615653 -0.23390033150811593 0.0
N N -0.238557251881272 0.9958054017722384 -0.3982042365711221 0.0
C C -0.15194036498856975 1.1530417444311951 -0.43332073139302346 0.0
C C -0.06690041132236185 1.2116187691327867 -0.41183796102160264 0.0
C C 0.0908306545139026 1.221416136690977 -0.44380404272856044 0.0
H H 0.1250406545139026 1.1966861366909771 -0.4810640427285604 0.0
C C -0.17806749892529933 0.7682434650472333 -0.08433391731723823 0.0
H H -0.2764774989252993 0.7771134650472333 -0.06459391731723826 0.0
C C -0.12745266623135063 0.8018898104472516 -0.15136589760175057 0.0
C C 0.011504385947960785 0.7906660595927439 -0.16717371696651645 0.0
C C -0.0835303379592159 1.24043008393502 -0.3497173543558114 0.0
H H -0.1840203379592159 1.2330000839350201 -0.33097735435581144 0.0
C C -0.22799746631430762 0.8584088923017854 -0.18508664179176984 0.0
C C 0.0224149926653734 0.832654541375303 -0.22083053143339085 0.0
C C -0.27886668673542614 1.007900196257299 -0.3358672388666749 0.0
H H -0.33438668673542615 1.0436701962572992 -0.325637238866675 0.0
C C -0.2108222035591772 0.9654113217674567 -0.27541831073020334 0.0
H H -0.2391322035591772 0.9738813217674567 -0.22827831073020335 0.0
C C -0.12428361348662664 0.9075724622246509 -0.2848415779177061 0.0
C C -0.10411468296825271 0.9084851192772314 -0.36058270349451715 0.0
H H -0.044134682968252716 0.8740551192772315 -0.37244270349451714 0.0
C C -0.14940682077782616 0.9492805346848701 -0.404998052676442 0.0
H H -0.11765682077782615 0.94266053468487 -0.4520780526764419 0.0
Cd Cd -0.31661132032078115 -0.5604590709060923 -0.9908357768134721 0.0
O O -0.4219012752869966 -0.457445804837774 -1.0512500761357628 0.0
O O -0.20141109351267966 -0.505007757670892 -1.0790892359327613 0.0
O O -0.8795213613859636 -0.7738081586816173 -1.1678960734378407 0.0
O O -0.413016173869808 -0.7734271104743529 -1.2723366082161753 0.0
N N -0.46825723491100146 -0.6174803681754224 -1.0697994634180863 0.0
N N -0.6363583251874528 -0.7536687782967717 -1.2000914284770736 0.0
C C -0.2922513080461477 -0.46150024153672725 -1.0910715457166595 0.0
C C -0.262669955496378 -0.4231140443488078 -1.147654042226473 0.0
C C -0.12530451598800632 -0.4223163506229326 -1.1817819723549556 0.0
H H -0.05039451598800627 -0.45317635062293266 -1.1691419723549556 0.0
C C -0.1001279617736141 -0.3808591280645773 -1.2257245628804632 0.0
H H -0.0012179617736140615 -0.3814191280645773 -1.2473845628804634 0.0
C C -0.20380490633627907 -0.3379772136330407 -1.254902404839025 0.0
C C -0.34976233794565564 -0.3330911733895596 -1.22057818419497 0.0
C C -0.4027409547203312 -0.3701537117487062 -1.165033156565864 0.0
H H -0.5003509547203314 -0.36812371174870623 -1.1425031565658639 0.0
C C -0.5646339851013521 -0.7858122087834678 -1.249192700671189 0.0
C C -0.7835136599550193 -0.7843771674351682 -1.1935968954102079 0.0
C C -0.5446177696787261 -0.6650045496331366 -1.0441656898733664 0.0
H H -0.5730277696787262 -0.6622745496331368 -0.9960356898733667 0.0
C C -0.6306284783649951 -0.7026237804944897 -1.0858846240899958 0.0
H H -0.7014384783649952 -0.7309937804944896 -1.0673446240899958 0.0
C C -0.585733438776431 -0.7121472689146587 -1.159898188241548 0.0
C C -0.4735209230532345 -0.6668732721753711 -1.1767574962978147 0.0
H H -0.44521092305323456 -0.6670432721753711 -1.2249174962978149 0.0
C C -0.4365418476062616 -0.6222250580596037 -1.1358150002787455 0.0
H H -0.3630518476062616 -0.5936950580596038 -1.1521750002787454 0.0
O O -0.26646931512058003 -0.6384372315500254 -0.9142186469198765 0.0
O O -0.09921514504228186 -0.6235455064831694 -0.9829518457800765 0.0
O O 0.1491682515793447 -0.33798515400502116 -0.75766697131414 0.0
O O -0.34797150569193475 -0.371054470488699 -0.6725143982124632 0.0
N N -0.1054147329059366 -0.3648211807078242 -0.7293714563015827 0.0
N N -0.23243803314804587 -0.49762389458662154 -0.900960546010533 0.0
C C -0.15572486919901932 -0.6555097519385353 -0.9398632233251079 0.0
C C -0.03428902352518458 -0.7102356061370925 -0.9092575629965364 0.0
C C 0.11594738198225595 -0.7192666459821141 -0.9344226548184795 0.0
H H 0.15015738198225595 -0.6945366459821142 -0.9716826548184795 0.0
C C -0.20162702563371368 -0.2719770552893509 -0.5859354094133048 0.0
H H -0.30003702563371365 -0.2808470552893509 -0.5661954094133048 0.0
C C -0.1482464708136584 -0.30066621438173274 -0.6449075103321712 0.0
C C 0.018694071889011576 -0.2924949805025382 -0.6745245638059788 0.0
C C -0.11907180234632658 -0.7458366164998892 -0.854383048429945 0.0
H H -0.2195618023463266 -0.7384066164998893 -0.835643048429945 0.0
C C -0.22837947834177522 -0.35227337979628326 -0.6805519574098536 0.0
C C 0.031192087803625472 -0.3355203018270469 -0.7257485263023732 0.0
C C -0.2504038649729264 -0.5022495460488734 -0.8257737521290149 0.0
H H -0.3059238649729264 -0.5380195460488735 -0.8155437521290149 0.0
C C -0.21879391396079603 -0.4647948118320742 -0.7804169890375207 0.0
H H -0.247103913960796 -0.4732648118320742 -0.7332769890375207 0.0
C C -0.15683281358487022 -0.408335413132973 -0.7933530271596692 0.0
C C -0.10297201823105545 -0.4066492293260637 -0.8552635405035626 0.0
H H -0.04299201823105548 -0.3722192293260637 -0.8671235405035627 0.0
C C -0.14857625360382198 -0.4471038845632452 -0.9117276163254239 0.0
H H -0.11682625360382196 -0.44048388456324516 -0.9588076163254239 0.0
Cd Cd 0.3086763004988194 -1.0574596603986495 0.4901268063568916 0.0
O O 0.42560437597865175 -0.957232549009824 0.5641847495269398 0.0
O O 0.20075830491564828 -1.0062114131158155 0.5869495941383952 0.0
O O 0.8886365854273963 -1.2679310767264373 0.6639700571325272 0.0
O O 0.42821114017338463 -1.2780988005553064 0.7637620555671356 0.0
N N 0.46016147044775946 -1.1173212966180737 0.5643039238633768 0.0
N N 0.6486363554882184 -1.2603512123213512 0.70516950472894 0.0
C C 0.3102695578502751 -0.9658491866393044 0.5886033266969624 0.0
C C 0.2673364133009028 -0.9204152649129951 0.6387491898031626 0.0
C C 0.13393475173120187 -0.9223495619575748 0.6782696260642191 0.0
H H 0.05902475173120186 -0.953209561957575 0.6656296260642192 0.0
C C 0.08243046216767448 -0.8787323611971235 0.7375151599660537 0.0
H H -0.01647953783232556 -0.8792923611971235 0.7591751599660537 0.0
C C 0.19891035311313213 -0.8330102111497971 0.7555976511590786 0.0
C C 0.3499977174258205 -0.8296041938361265 0.7160078683298463 0.0
C C 0.3919715568817354 -0.8749872715381795 0.6660352921098587 0.0
H H 0.48958155688173555 -0.8729572715381795 0.6435052921098587 0.0
C C 0.539451685178064 -1.283775232183031 0.7478750150464412 0.0
C C 0.7950890513185417 -1.2850048515532255 0.6991775222844464 0.0
C C 0.5599051338602864 -1.1627582743249987 0.5452199827369807 0.0
H H 0.5883151338602866 -1.1600282743249986 0.49708998273698074 0.0
C C 0.6203378593794572 -1.2013069204379145 0.5875069873267751 0.0
H H 0.6911478593794573 -1.2296769204379145 0.568966987326775 0.0
C C 0.5759492260840859 -1.2110560666346668 0.6504589030443755 0.0
C C 0.4825585200107671 -1.171819448329985 0.6867742245319477 0.0
H H 0.4542485200107671 -1.171989448329985 0.7349342245319476 0.0
C C 0.40650480451392257 -1.1191670723679632 0.6267723624882797 0.0
H H 0.33301480451392257 -1.090637072367963 0.6431323624882799 0.0
O O 0.26179990191615504 -1.1427243950985493 0.4022229654262123 0.0
O O 0.10782040102428346 -1.1239184585446154 0.4927718293085886 0.0
O O -0.15030789757527263 -0.8394789366152751 0.2576637054467084 0.0
O O 0.3603869332347303 -0.8728642891654138 0.17289547088783006 0.0
N N 0.10543433661061458 -0.8713996845990469 0.23026540208296242 0.0
N N 0.22576779125405405 -0.9894673455664948 0.3959312033816281 0.0
C C 0.1282229708448978 -1.1518499629698498 0.4411465783173856 0.0
C C 0.04694257647506957 -1.206991014637046 0.4110643764515222 0.0
C C -0.08937470869560744 -1.2146049043529878 0.4332595202413025 0.0
H H -0.12358470869560743 -1.189874904352988 0.4705195202413025 0.0
C C 0.18071057132047788 -0.769469327196909 0.09462796476712676 0.0
H H 0.2791205713204779 -0.778339327196909 0.0748879647671268 0.0
C C 0.15552001968549076 -0.8018058418607473 0.14690553209474969 0.0
C C -0.02173562537623926 -0.7844572935299652 0.1655234190126412 0.0
C C 0.10854123735356402 -1.2479556842502715 0.35905968082708306 0.0
H H 0.20903123735356405 -1.2405256842502717 0.3403196808270831 0.0
C C 0.2070507612014013 -0.8491088414720752 0.17803795899101982 0.0
C C -0.014439865215142412 -0.8359967448202564 0.23463320649068403 0.0
C C 0.25377739193305754 -1.0068742677686335 0.3278882242612758 0.0
H H 0.3092973919330575 -1.0426442677686336 0.3176582242612759 0.0
C C 0.20871749162767625 -0.964395281137053 0.270878462780332 0.0
H H 0.23702749162767622 -0.972865281137053 0.22373846278033202 0.0
C C 0.15722050994678963 -0.9142758191635391 0.29249831720361624 0.0
C C 0.09978584417707319 -0.9035166749132819 0.35550467028717975 0.0
H H 0.039805844177073196 -0.8690866749132821 0.36736467028717973 0.0
C C 0.14266709864743238 -0.9463329091721906 0.4016905626101524 0.0
H H 0.11091709864743238 -0.9397129091721905 0.44877056261015236 0.0
