_cell_length_a 8.39304
_cell_length_b 22.23511
_cell_length_c 18.74218
_cell_angle_alpha 90.0
_cell_angle_beta 94.0312
_cell_angle_gamma 90.0
_symmetry_space_group_name_H-M         'P 1'
_symmetry_Int_Tables_number            1
loop_
_symmetry_equiv_pos_as_xyz
   'x, y, z'
                         
loop_
_atom_site_label
_atom_site_type_symbol
_atom_site_fract_x 
_atom_site_fract_y
_atom_site_fract_z
_atom_site_charge
Cd Cd 0.32339599460107266 0.5622128436958154 0.9949738891517931 0.0
O O 0.4280796232295003 0.46288215429183704 1.0485838626502728 0.0
O O 0.21797811891856606 0.5100187828487851 1.0854312850658572 0.0
O O 0.889943393685314 0.7646989296684533 1.156436577075346 0.0
O O 0.4102414576553013 0.7767520650078406 1.2661666711555637 0.0
N N 0.45569612721826525 0.6147001162275249 1.058344752477483 0.0
N N 0.6417313062724427 0.7546892841740129 1.1946584956136836 0.0
C C 0.2917616720903617 0.46301297130993535 1.0952681145078949 0.0
C C 0.2673776163377889 0.4161219956212963 1.1456920601070133 0.0
C C 0.1380310540147181 0.42520206287158896 1.1784522939462387 0.0
H H 0.06312105401471808 0.456062062871589 1.1658122939462388 0.0
C C 0.09742976637671465 0.37882356098094006 1.2289724408129536 0.0
H H -0.0014802336232854097 0.37938356098094006 1.2506324408129539 0.0
C C 0.1973731233708242 0.33339378618143845 1.2419876920456838 0.0
C C 0.36687856703021643 0.3377734653552606 1.221510877976442 0.0
C C 0.37335352912484043 0.38054978026837394 1.163222126756224 0.0
H H 0.4709635291248405 0.37851978026837396 1.140692126756224 0.0
C C 0.5376518668397348 0.7829931875508775 1.2521357146930896 0.0
C C 0.7771880628692338 0.7885700363026774 1.2028855416825923 0.0
C C 0.5669469217628839 0.6673751726626838 1.048736996778095 0.0
H H 0.5953569217628838 0.664645172662684 1.000606996778095 0.0
C C 0.6393498559854609 0.7047903508540296 1.0915322471684328 0.0
H H 0.7101598559854609 0.7331603508540295 1.0729922471684328 0.0
C C 0.5778619697523871 0.703728066884206 1.159889076588371 0.0
C C 0.4922250518266094 0.6646483771639516 1.1827595891943394 0.0
H H 0.4639150518266094 0.6648183771639516 1.2309195891943394 0.0
C C 0.4182344902549785 0.6217688589904519 1.1334375406145347 0.0
H H 0.3447444902549785 0.5932388589904518 1.1497975406145347 0.0
O O 0.28977035724388434 0.6381729516782192 0.9107567565203103 0.0
O O 0.0873751686741392 0.6228061977687264 0.9931151047239318 0.0
O O -0.1424025870083124 0.334257359946773 0.7689828532960803 0.0
O O 0.3356814786468943 0.3777877024490831 0.6665629299211914 0.0
N N 0.10048376242210733 0.36529211942715606 0.7412677710118637 0.0
N N 0.21288119742771508 0.49918593588384114 0.9023479861685489 0.0
C C 0.15563956848862204 0.6498896120385113 0.9419366374427904 0.0
C C 0.048337077414441126 0.7004118212085564 0.9009755791751043 0.0
C C -0.09641782316952635 0.7193909632269787 0.9328142903227271 0.0
H H -0.13062782316952634 0.6946609632269788 0.970074290322727 0.0
C C 0.17836069147797307 0.26786585978722016 0.5930403646968453 0.0
H H 0.27677069147797306 0.27673585978722015 0.5733003646968453 0.0
C C 0.15630275953190906 0.3013643688089088 0.6499061102038732 0.0
C C 0.00596498800950161 0.29127304584273456 0.6714753579106317 0.0
C C 0.10502570660264295 0.7491844579608785 0.8519260450961732 0.0
H H 0.20551570660264298 0.7417544579608786 0.8331860450961732 0.0
C C 0.20745355270453483 0.3494963044706335 0.6780380990487079 0.0
C C -0.02662496699361294 0.33507486307527956 0.7251798174036111 0.0
C C 0.2545139641419105 0.5009060618519693 0.8363677806428298 0.0
H H 0.31003396414191053 0.5366760618519694 0.8261377806428298 0.0
C C 0.23533643259264442 0.45974648780322375 0.7735604816847457 0.0
H H 0.2636464325926444 0.46821648780322367 0.7264204816847458 0.0
C C 0.15298550779133557 0.4088815329246997 0.7966800227962905 0.0
C C 0.08963180713001079 0.40546898525472985 0.8557727110470705 0.0
H H 0.029651807130010824 0.37103898525472984 0.8676327110470707 0.0
C C 0.1299403015510976 0.4412491016341734 0.9128739544435005 0.0
H H 0.09819030155109759 0.4346291016341734 0.9599539544435005 0.0
Cd Cd -0.3080751248056151 1.061956355766809 -0.49206425441485435 0.0
O O -0.4241663696284085 0.9652924185416247 -0.555207964356362 0.0
O O -0.19746358693793162 1.0102514028854988 -0.5782556682633726 0.0
O O -0.8909590104770722 1.2665729596597408 -0.6671693210326748 0.0
O O -0.4116684458288877 1.2703005792659452 -0.7663099563143603 0.0
N N -0.4709150767744311 1.114810335602968 -0.5684031744783329 0.0
N N -0.6548054456130517 1.2615783639645457 -0.6969760154570115 0.0
C C -0.29924709868904165 0.9603192465346303 -0.5978578767166997 0.0
C C -0.28620625424892077 0.9224987907455344 -0.6546845242625431 0.0
C C -0.12753699352416692 0.915682005244055 -0.6761742897967735 0.0
H H -0.05262699352416693 0.9465420052440552 -0.6635342897967735 0.0
C C -0.08671403668027602 0.8791653914785942 -0.7267103614349301 0.0
H H 0.012195963319723996 0.8797253914785942 -0.7483703614349301 0.0
C C -0.20232665047789788 0.8377811972856899 -0.742368417092853 0.0
C C -0.3467864276550422 0.8348266086708462 -0.7116600710078894 0.0
C C -0.386693252314734 0.8708445842825565 -0.6681155620708191 0.0
H H -0.4843032523147341 0.8688145842825565 -0.6455855620708191 0.0
C C -0.5500744495416869 1.2851784676051476 -0.7474550128404239 0.0
C C -0.7838527398518232 1.282596501180667 -0.6916382749598039 0.0
C C -0.5423097661874511 1.1566991741317436 -0.5397916818494212 0.0
H H -0.5707197661874512 1.1539691741317435 -0.49166168184942133 0.0
C C -0.6249341722079778 1.2043841557348165 -0.5914424197868678 0.0
H H -0.6957441722079779 1.2327541557348165 -0.5729024197868678 0.0
C C -0.5669932476300276 1.2056122120623711 -0.655183549951027 0.0
C C -0.48904257628049885 1.1649497876939476 -0.6730972583122286 0.0
H H -0.4607325762804988 1.1651197876939479 -0.7212572583122285 0.0
C C -0.42144516045739844 1.1316930468290582 -0.6325655746294168 0.0
H H -0.3479551604573984 1.1031630468290583 -0.648925574629417 0.0
O O -0.28684951367525763 1.1413961098957854 -0.40913719251739433 0.0
O O -0.08793629903628002 1.1182670860909945 -0.48289687826641 0.0
O O 0.1628186296721859 0.8402165689332244 -0.25821860048495154 0.0
O O -0.32784564409204453 0.872671182475279 -0.17655851035547018 0.0
N N -0.0939982419933018 0.8690834645066342 -0.23110625428306206 0.0
N N -0.21243742382572853 0.9951896431447685 -0.38915210213773466 0.0
C C -0.14913749800457357 1.1569983640174155 -0.4290452535311248 0.0
C C -0.03596510793352237 1.208990864547966 -0.40759315104906474 0.0
C C 0.08640213409354038 1.2160733875580456 -0.43562870949812194 0.0
H H 0.12061213409354038 1.1913433875580457 -0.4728887094981219 0.0
C C -0.19699812887585721 0.762731155567775 -0.08728440489983061 0.0
H H -0.29540812887585727 0.7716011555677751 -0.06754440489983064 0.0
C C -0.13356468591352155 0.7954922787751024 -0.14843216136095003 0.0
C C 0.004096822855866842 0.7894569416520418 -0.1724077645489666 0.0
C C -0.11866671011055278 1.2393074920572036 -0.3517316880205339 0.0
H H -0.21915671011055277 1.2318774920572038 -0.3329916880205339 0.0
C C -0.2087117103993404 0.8507493782903383 -0.18259357943628948 0.0
C C 0.023173035932003445 0.8344895625816079 -0.2274647075485721 0.0
C C -0.256170957373601 0.9974757171792853 -0.3351381705189091 0.0
H H -0.311690957373601 1.0332457171792855 -0.32490817051890913 0.0
C C -0.2342907549231068 0.9656772441431216 -0.2741536579211932 0.0
H H -0.26260075492310686 0.9741472441431216 -0.2270136579211932 0.0
C C -0.13419619137418712 0.9119758829752639 -0.28112783569327876 0.0
C C -0.10528879813505586 0.8993840355409826 -0.3542062233491178 0.0
H H -0.04530879813505586 0.8649540355409826 -0.3660662233491178 0.0
C C -0.14324891967125647 0.942795421071726 -0.413272931103657 0.0
H H -0.11149891967125646 0.936175421071726 -0.46035293110365694 0.0
Cd Cd -0.3028660227577994 -0.5572147363202649 -0.9910114605758756 0.0
O O -0.4426627190245409 -0.4575706202412908 -1.0490167127369538 0.0
O O -0.20845165816552896 -0.5133239470587005 -1.0832556277478287 0.0
O O -0.8849061005068909 -0.7703032653255832 -1.1668529858269034 0.0
O O -0.40170903982881995 -0.7757715892153352 -1.2645399851922237 0.0
N N -0.45086694875758243 -0.6253593256266223 -1.0641939416705384 0.0
N N -0.6252611849060323 -0.755769935990829 -1.1933091622565712 0.0
C C -0.32417794194345667 -0.4643951073184601 -1.0954225408633866 0.0
C C -0.286433440944441 -0.42636538714040473 -1.1510076175283102 0.0
C C -0.14335514769198848 -0.4249265577483668 -1.181883930911071 0.0
H H -0.06844514769198842 -0.45578655774836685 -1.1692439309110707 0.0
C C -0.10016599800117366 -0.3751372270666354 -1.2335584820527032 0.0
H H -0.0012559980011736442 -0.3756972270666354 -1.2552184820527033 0.0
C C -0.22051355764971856 -0.3381874280931448 -1.252491202297552 0.0
C C -0.3589278133310007 -0.3360827816422318 -1.2110030486443675 0.0
C C -0.37353477682718866 -0.37078608242420535 -1.1584514777607664 0.0
H H -0.4711447768271888 -0.3687560824242054 -1.1359214777607665 0.0
C C -0.5419108736991026 -0.7822177757653096 -1.2506543553088807 0.0
C C -0.7773824181381122 -0.7837250999885521 -1.1935201003946392 0.0
C C -0.5555225209025166 -0.6655236984260233 -1.047076246309111 0.0
H H -0.5839325209025167 -0.6627936984260234 -0.9989462463091112 0.0
C C -0.6412116954897217 -0.7115073039582284 -1.0815229032002236 0.0
H H -0.7120216954897216 -0.7398773039582281 -1.0629829032002236 0.0
C C -0.5890559254701817 -0.7094511911797404 -1.1525737048550264 0.0
C C -0.46619337433576746 -0.6645664163046278 -1.180489366351558 0.0
H H -0.4378833743357675 -0.6647364163046278 -1.228649366351558 0.0
C C -0.4244342686939276 -0.6211577871382759 -1.1246382371065387 0.0
H H -0.3509442686939276 -0.5926277871382759 -1.1409982371065388 0.0
O O -0.2603812475935518 -0.6380983376076123 -0.9055849847024575 0.0
O O -0.08944612437091531 -0.6236726460253882 -0.9914077054449939 0.0
O O 0.1430839428767262 -0.33453019849989807 -0.7624672735967721 0.0
O O -0.3583818042893407 -0.3805258779578282 -0.6758301922373263 0.0
N N -0.11739056312007201 -0.3692900357147639 -0.7382031441052972 0.0
N N -0.23023137301326863 -0.49968221161663184 -0.8913928499432798 0.0
C C -0.15500587056308282 -0.6576465895971199 -0.9432971094251876 0.0
C C -0.029629829461932277 -0.7053203757797439 -0.9029187352028335 0.0
C C 0.08267631231165713 -0.7153948489337868 -0.9398446999214009 0.0
H H 0.11688631231165719 -0.6906648489337869 -0.9771046999214008 0.0
C C -0.20956703062922194 -0.2722375371804817 -0.5870289950054689 0.0
H H -0.30797703062922194 -0.2811075371804817 -0.5672889950054689 0.0
C C -0.15123593833803564 -0.3016913103112779 -0.6475580701093738 0.0
C C 0.01519301422255676 -0.285881634538893 -0.6666404302399563 0.0
C C -0.09365359720617923 -0.7446590221566665 -0.8531254186878673 0.0
H H -0.19414359720617927 -0.7372290221566664 -0.8343854186878673 0.0
C C -0.20588855656175212 -0.353210209681451 -0.6882499845370306 0.0
C C 0.02645481018799956 -0.32992025081020476 -0.7249376332375261 0.0
C C -0.27645888730504026 -0.5082860296218401 -0.8306764249165088 0.0
H H -0.3319788873050402 -0.5440560296218402 -0.8204464249165089 0.0
C C -0.2303457954653386 -0.45885670303300496 -0.7773745153216143 0.0
H H -0.25865579546533857 -0.46732670303300494 -0.7302345153216144 0.0
C C -0.14345103222311137 -0.41654365821240713 -0.789849979689416 0.0
C C -0.09066274098400402 -0.3964511297164401 -0.8609735717097659 0.0
H H -0.030682740984004052 -0.36202112971644007 -0.8728335717097659 0.0
C C -0.1531626142099053 -0.4437009447824847 -0.9128065361902861 0.0
H H -0.12141261420990528 -0.43708094478248466 -0.9598865361902862 0.0
Cd Cd 0.31163781996597445 -1.0633036662622408 0.48236764152708217 0.0
O O 0.43518450578387696 -0.9549974552317398 0.550985043257435 0.0
O O 0.2100569096381483 -1.0044703550181353 0.5763562353848563 0.0
O O 0.9092307505290259 -1.2698896758784304 0.6672617225674488 0.0
O O 0.40922062837147954 -1.2688719156488315 0.7671520287113295 0.0
N N 0.45912736517267205 -1.1164366125773322 0.5713506883154078 0.0
N N 0.6287365882416319 -1.251691009048113 0.7033516897478559 0.0
C C 0.30293246684088415 -0.9602137358162413 0.5862498133283347 0.0
C C 0.28720847668626326 -0.9261587195561457 0.6425745323827208 0.0
C C 0.1278284270150436 -0.924015233853461 0.6822992191076122 0.0
H H 0.0529184270150436 -0.9548752338534612 0.6696592191076122 0.0
C C 0.09913051771340647 -0.8853372909253789 0.7259487997002405 0.0
H H 0.00022051771340643645 -0.8858972909253789 0.7476087997002404 0.0
C C 0.19648863913358922 -0.836484371389007 0.7430432368465367 0.0
C C 0.3650975112205743 -0.8348982774616673 0.7119970283154365 0.0
C C 0.38093589741222267 -0.8750011040850492 0.6629509769011599 0.0
H H 0.47854589741222275 -0.8729711040850491 0.64042097690116 0.0
C C 0.5409032302187284 -1.2798364035214984 0.7563658410504249 0.0
C C 0.7875087478437699 -1.28489406428658 0.7051890465118448 0.0
C C 0.5729513597037769 -1.1643446857839557 0.5477993357777695 0.0
H H 0.6013613597037769 -1.1616146857839555 0.4996693357777696 0.0
C C 0.6256622124968483 -1.2043550789025999 0.5784046623867959 0.0
H H 0.6964722124968484 -1.2327250789025999 0.5598646623867959 0.0
C C 0.598045292325313 -1.2133747062869669 0.6519113214638576 0.0
C C 0.4642597926176457 -1.1713045803944522 0.676086894183352 0.0
H H 0.43594979261764566 -1.1714745803944522 0.724246894183352 0.0
C C 0.43528917153392954 -1.1287947448335653 0.6350835550822508 0.0
H H 0.36179917153392954 -1.1002647448335654 0.651443555082251 0.0
O O 0.26355921591578185 -1.1380880629617756 0.40059634585665677 0.0
O O 0.07960775292693925 -1.1282454951361767 0.47903594963311585 0.0
O O -0.1348529037239494 -0.8363532134077009 0.262488460638662 0.0
O O 0.3428288066909265 -0.8785241201384638 0.17268160444031347 0.0
N N 0.10722433223686602 -0.8729750837292952 0.2343434448665693 0.0
N N 0.20939645731107642 -0.9881263166692441 0.39820697313980036 0.0
C C 0.1363609235051798 -1.1487523318920974 0.44266750886148554 0.0
C C 0.03203464342807338 -1.2099045210883899 0.4072543410374622 0.0
C C -0.08889996528030285 -1.2203402676066306 0.4364679626075559 0.0
H H -0.12310996528030285 -1.1956102676066307 0.4737279626075559 0.0
C C 0.21010747972941507 -0.7601415098583114 0.09123384384873615 0.0
H H 0.30851747972941507 -0.7690115098583115 0.07149384384873617 0.0
C C 0.13521238889379508 -0.8033546007730081 0.150601757809442 0.0
C C -0.0028800713763858623 -0.7943316834416393 0.17605184450224645 0.0
C C 0.10774531813843292 -1.2361114557429087 0.3498212603207648 0.0
H H 0.2082353181384329 -1.2286814557429089 0.33108126032076485 0.0
C C 0.20881625741371623 -0.8480389257761516 0.18180833060221357 0.0
C C -0.018718539418164863 -0.8298631852406341 0.23160243478399045 0.0
C C 0.24985053664303833 -1.0064412781920138 0.32821811277983876 0.0
H H 0.3053705366430383 -1.0422112781920139 0.31798811277983885 0.0
C C 0.22475830694286283 -0.969043644335388 0.27268306177728713 0.0
H H 0.2530683069428628 -0.977513644335388 0.22554306177728717 0.0
C C 0.1376644760565316 -0.9097772482184785 0.2930463041659633 0.0
C C 0.09516040866416664 -0.9089674761473071 0.363294182006634 0.0
H H 0.035180408664166635 -0.8745374761473071 0.375154182006634 0.0
C C 0.14030981513525861 -0.9420926015630855 0.4155733853005445 0.0
H H 0.10855981513525861 -0.9354726015630855 0.4626533853005445 0.0
