_cell_length_a 8.39304
_cell_length_b 22.23511
_cell_length_c 18.74218
_cell_angle_alpha 90.0
_cell_angle_beta 94.0312
_cell_angle_gamma 90.0
_symmetry_space_group_name_H-M         'P 1'
_symmetry_Int_Tables_number            1
loop_
_symmetry_equiv_pos_as_xyz
   'x, y, z'
                         
loop_
_atom_site_label
_atom_site_type_symbol
_atom_site_fract_x 
_atom_site_fract_y
_atom_site_fract_z
_atom_site_charge
Cd Cd 0.32863116558150013 0.5543445662895378 0.9842064717526184 0.0
O O 0.43842720423777853 0.4653834641917366 1.0594330967663406 0.0
O O 0.2086105696547916 0.5054643218207344 1.0711630002299277 0.0
O O 0.9074685612139543 0.7650114156410727 1.163331863367049 0.0
O O 0.4192107045503907 0.7776409271801069 1.2656699454038447 0.0
N N 0.4606661363530193 0.6262470193271437 1.0680184792042222 0.0
N N 0.6313003801402001 0.7535341450082933 1.1925501120140987 0.0
C C 0.3057683483712604 0.46142876216682394 1.0944264635857988 0.0
C C 0.2617597864366867 0.4147756164400211 1.1525371837843195 0.0
C C 0.14314736978897882 0.41745903066572465 1.1728984577916561 0.0
H H 0.06823736978897879 0.4483190306657247 1.160258457791656 0.0
C C 0.09870180059869244 0.38047192652789363 1.236200441918852 0.0
H H -0.00020819940130759618 0.38103192652789364 1.257860441918852 0.0
C C 0.1908917040747751 0.33285955103301545 1.2478975473582554 0.0
C C 0.33314409628294395 0.3384645667354741 1.216407016089904 0.0
C C 0.377786283323342 0.3766875949599421 1.1666976107772227 0.0
H H 0.4753962833233421 0.37465759495994205 1.1441676107772227 0.0
C C 0.5571102352660291 0.783622227853937 1.2439672784368723 0.0
C C 0.7817167427282625 0.7865104657590816 1.1942107390990522 0.0
C C 0.5573205075693638 0.6678038881956395 1.0375756594368672 0.0
H H 0.5857305075693638 0.6650738881956397 0.9894456594368675 0.0
C C 0.6155939741397564 0.7113275572872283 1.0857088752784816 0.0
H H 0.6864039741397564 0.7396975572872282 1.0671688752784816 0.0
C C 0.5794254080351309 0.7103931146753973 1.1591690933647716 0.0
C C 0.4578832249098588 0.6680914786880916 1.1789934831061955 0.0
H H 0.42957322490985883 0.6682614786880916 1.2271534831061954 0.0
C C 0.4127663707342883 0.620809488660466 1.1239823076760682 0.0
H H 0.3392763707342883 0.592279488660466 1.1403423076760684 0.0
O O 0.2715440902963607 0.6334097735955525 0.9130810004626304 0.0
O O 0.0706133341300911 0.625294554691951 0.9881920631634574 0.0
O O -0.1498560565697072 0.3416821841795528 0.7624926029730944 0.0
O O 0.3537713080443709 0.3832239475460525 0.6819023995756335 0.0
N N 0.11099211448802515 0.37445701094792005 0.736392304201191 0.0
N N 0.22159043485852167 0.49003860627898793 0.8989591638575654 0.0
C C 0.12812931884191994 0.6535570483070173 0.9423296219601907 0.0
C C 0.0340073385938904 0.7032552402629105 0.9105999376209546 0.0
C C -0.08916352283796652 0.7239424137740413 0.9416481206130526 0.0
H H -0.12337352283796651 0.6992124137740414 0.9789081206130524 0.0
C C 0.17650632908163033 0.2637534971062484 0.5793403916063781 0.0
H H 0.27491632908163033 0.2726234971062484 0.5596003916063781 0.0
C C 0.12182924248048416 0.2948495989077827 0.6429399959627128 0.0
C C -0.025011684034409468 0.29035050769325527 0.6778797468043493 0.0
C C 0.11521209390411415 0.7430913296638905 0.8536905783496931 0.0
H H 0.21570209390411418 0.7356613296638904 0.8349505783496932 0.0
C C 0.21224552149155806 0.3487579849153549 0.6853537829664977 0.0
C C -0.03316674930155085 0.32588490029764694 0.7317663749640508 0.0
C C 0.2639175346324904 0.5056707584150791 0.8359148639629294 0.0
H H 0.31943753463249036 0.5414407584150792 0.8256848639629294 0.0
C C 0.21593970992712547 0.4607947406697216 0.7658190858382585 0.0
H H 0.24424970992712547 0.46926474066972157 0.7186790858382586 0.0
C C 0.14532525718160855 0.40569210990465987 0.7871441471091492 0.0
C C 0.11556525217292092 0.4098165461750254 0.8555194130191077 0.0
H H 0.055585252172920936 0.3753865461750254 0.8673794130191079 0.0
C C 0.15779640208941553 0.4505203768656894 0.9037263418072367 0.0
H H 0.12604640208941553 0.4439003768656894 0.9508063418072367 0.0
Cd Cd -0.32008310165275733 1.0564993001381782 -0.4957500188547235 0.0
O O -0.4088177782326044 0.9609999584343812 -0.5486517425274933 0.0
O O -0.20180576324754773 1.0009550813434298 -0.5774265609581689 0.0
O O -0.8766571168899437 1.270890323877592 -0.6692787598623164 0.0
O O -0.3990903594122865 1.2713185007136805 -0.7727185367367077 0.0
N N -0.4482869683619222 1.1209907716741883 -0.5648762774824055 0.0
N N -0.6290465639154298 1.2549155617754246 -0.7061240606136161 0.0
C C -0.29157890549633664 0.9632959351189061 -0.5881113717116002 0.0
C C -0.2770227431687596 0.9168282408191233 -0.6421966615691141 0.0
C C -0.12315389369386502 0.9185387735198891 -0.6743990978375051 0.0
H H -0.04824389369386503 0.9493987735198893 -0.6617590978375051 0.0
C C -0.11611936220508164 0.8742725231343216 -0.735531936577274 0.0
H H -0.01720936220508162 0.8748325231343216 -0.757191936577274 0.0
C C -0.22189972396721455 0.8443392657910059 -0.7505493604583302 0.0
C C -0.3656983964858277 0.8369518325640283 -0.7145285546986011 0.0
C C -0.383077341217958 0.8775326908860887 -0.671369702878532 0.0
H H -0.4806873412179581 0.8755026908860886 -0.648839702878532 0.0
C C -0.5362433113802042 1.2836789692073642 -0.7496473305485708 0.0
C C -0.8024861372589717 1.2840160582166267 -0.6910523210454559 0.0
C C -0.5704768020840028 1.1646981323702896 -0.5499898244482386 0.0
H H -0.5988868020840029 1.1619681323702895 -0.5018598244482387 0.0
C C -0.6431551938818811 1.2090525239572572 -0.5836334315700937 0.0
H H -0.7139651938818812 1.2374225239572572 -0.5650934315700936 0.0
C C -0.5916982885694434 1.2145860536264983 -0.6551017136018543 0.0
C C -0.48293060981554553 1.162890200367597 -0.678510900922414 0.0
H H -0.45462060981554553 1.163060200367597 -0.7266709009224138 0.0
C C -0.4240733965019245 1.1175351263405076 -0.6377659704876093 0.0
H H -0.35058339650192444 1.0890051263405076 -0.6541259704876096 0.0
O O -0.2645756113499481 1.1443849940854054 -0.41458336546140506 0.0
O O -0.10091356134699224 1.1180023154031058 -0.48061613004718634 0.0
O O 0.14491350352428786 0.8344285570534877 -0.25835220960614147 0.0
O O -0.35609504488616117 0.8723967655642317 -0.16627197463678448 0.0
N N -0.13052947693496922 0.8691319771936394 -0.2415270786582254 0.0
N N -0.20787745500317192 1.0014924099772522 -0.3943591167930296 0.0
C C -0.16164952073895786 1.1563816586355777 -0.4330863268030188 0.0
C C -0.028471852806051374 1.2141173580910578 -0.40090622818955346 0.0
C C 0.11081049763924379 1.2267143961569271 -0.4395859129080829 0.0
H H 0.1450204976392438 1.2019843961569272 -0.47684591290808287 0.0
C C -0.18039806009074724 0.773585362800783 -0.08814723666003768 0.0
H H -0.2788080600907472 0.7824553628007831 -0.06840723666003772 0.0
C C -0.13321916336921633 0.7961741415289287 -0.13960844962393137 0.0
C C 0.0067637394574111285 0.7887809420186607 -0.17507563048015312 0.0
C C -0.09785185276941492 1.2423240024478441 -0.3509240441692719 0.0
H H -0.1983418527694149 1.2348940024478443 -0.33218404416927194 0.0
C C -0.21330890492645613 0.8442678777079483 -0.19238842483734678 0.0
C C 0.04938157166634895 0.8349294590081541 -0.22588945607694644 0.0
C C -0.25213676009530966 0.9972816424596892 -0.3270232175337725 0.0
H H -0.3076567600953097 1.0330516424596894 -0.3167932175337726 0.0
C C -0.2149738290971631 0.9710025459189974 -0.27061488626672525 0.0
H H -0.24328382909716312 0.9794725459189974 -0.22347488626672526 0.0
C C -0.16313727313423185 0.9127003476459221 -0.2943875073465292 0.0
C C -0.1048723734994861 0.9098113486657234 -0.35104695971958066 0.0
H H -0.0448923734994861 0.8753813486657236 -0.36290695971958065 0.0
C C -0.1501210508025882 0.9396127970138927 -0.4053936460027182 0.0
H H -0.1183710508025882 0.9329927970138926 -0.4524736460027182 0.0
Cd Cd -0.3187900113909454 -0.5558919553228541 -0.9780943180549185 0.0
O O -0.4321199551540375 -0.45727883797428476 -1.0504130762261072 0.0
O O -0.19594046758166977 -0.5119284929057569 -1.083639197858478 0.0
O O -0.8932938959281248 -0.7710577602890545 -1.1604623586554648 0.0
O O -0.4337350427459698 -0.7728085203158503 -1.2666461502647395 0.0
N N -0.43646999781357465 -0.6152779615427213 -1.0692140935942787 0.0
N N -0.6542559516417251 -0.7590494820896441 -1.2024632883496147 0.0
C C -0.3004607903497259 -0.46228590181840007 -1.0939783190330865 0.0
C C -0.2905265536075566 -0.41561329125692337 -1.1485323972670896 0.0
C C -0.12328557665174751 -0.42413652921559664 -1.1869511505641475 0.0
H H -0.048375576651747465 -0.45499652921559663 -1.1743111505641475 0.0
C C -0.11555037381592818 -0.38255773260452175 -1.2293165424070072 0.0
H H -0.01664037381592816 -0.38311773260452175 -1.2509765424070072 0.0
C C -0.19946177593305436 -0.3349854990945104 -1.2524395034400087 0.0
C C -0.3495178738979148 -0.32869939008507854 -1.218635083056002 0.0
C C -0.3914916271849759 -0.38092538790069996 -1.1619286171850953 0.0
H H -0.48910162718497596 -0.37889538790069993 -1.1393986171850954 0.0
C C -0.5567963115921123 -0.7922324243135259 -1.2591262074450937 0.0
C C -0.7961349573913679 -0.7785655042937915 -1.190123826442128 0.0
C C -0.5542359635210935 -0.6558745648504029 -1.0383492432406536 0.0
H H -0.5826459635210935 -0.6531445648504031 -0.9902192432406537 0.0
C C -0.6055049446515288 -0.7073574681294178 -1.0799670807502104 0.0
H H -0.6763149446515289 -0.7357274681294177 -1.0614270807502104 0.0
C C -0.5764740350763674 -0.7087513448534659 -1.1599438274033038 0.0
C C -0.47179819510838483 -0.6684774155622174 -1.1849309371054415 0.0
H H -0.44348819510838494 -0.6686474155622174 -1.2330909371054415 0.0
C C -0.406234529701364 -0.6320272199637209 -1.1387289772853186 0.0
H H -0.3327445297013639 -0.603497219963721 -1.1550889772853186 0.0
O O -0.28510726124949265 -0.6416133329110347 -0.9077191514571578 0.0
O O -0.10577713040093961 -0.6263487727180987 -0.9829422813718174 0.0
O O 0.1627622425459149 -0.33698219264311907 -0.7601194129795416 0.0
O O -0.3334203685762998 -0.3761320227579443 -0.6698651996066121 0.0
N N -0.10953386727563014 -0.36060894391776116 -0.7303333438420673 0.0
N N -0.20975483810986426 -0.49230174083969014 -0.8923448327843773 0.0
C C -0.13322227077896046 -0.6469547938814469 -0.9364632123556466 0.0
C C -0.036570298598044115 -0.7031478257242774 -0.903185251192734 0.0
C C 0.11055156128339598 -0.7134275355690429 -0.9353743424842494 0.0
H H 0.14476156128339604 -0.688697535569043 -0.9726343424842494 0.0
C C -0.21419640732977005 -0.27069183765880955 -0.5873816092063383 0.0
H H -0.31260640732977 -0.27956183765880954 -0.5676416092063383 0.0
C C -0.1237786934379973 -0.30431672916512037 -0.6453432417012633 0.0
C C 0.008550662487303375 -0.2900853470984946 -0.6672876324114041 0.0
C C -0.11553136974273012 -0.747720755997397 -0.8481712239488219 0.0
H H -0.21602136974273015 -0.7402907559973969 -0.829431223948822 0.0
C C -0.21951730631306154 -0.3497517763956197 -0.6781702452299766 0.0
C C 0.017649631794359806 -0.33879515326059156 -0.7293254186590036 0.0
C C -0.25398633225731676 -0.49672428212656555 -0.8285516068251643 0.0
H H -0.3095063322573167 -0.5324942821265657 -0.8183216068251643 0.0
C C -0.23635444712711312 -0.4679031250586814 -0.7832387867188259 0.0
H H -0.2646644471271131 -0.4763731250586814 -0.7360987867188259 0.0
C C -0.1538012425932469 -0.40499031011841413 -0.7914418355716348 0.0
C C -0.11214179352541606 -0.4013615457426372 -0.8667788251595419 0.0
H H -0.05216179352541608 -0.3669315457426372 -0.878638825159542 0.0
C C -0.133588891924411 -0.4387095598956029 -0.8998769567050839 0.0
H H -0.10183889192441098 -0.4320895598956029 -0.946956956705084 0.0
Cd Cd 0.3085420612880669 -1.0517856792430167 0.4807479135269789 0.0
O O 0.4299313290210759 -0.9612582438244608 0.5557674041167592 0.0
O O 0.18604383248041842 -1.0076268730664226 0.5724165308935598 0.0
O O 0.8885499044007614 -1.2679407968053313 0.6690521033384901 0.0
O O 0.3982192652426602 -1.278098451528714 0.7553840090422076 0.0
N N 0.46943408425915417 -1.1160791574471747 0.5680340361641383 0.0
N N 0.6278178790537762 -1.2579999336675474 0.6967716504940915 0.0
C C 0.3139348916063449 -0.9674371506352251 0.5831702968306474 0.0
C C 0.2801654309395384 -0.9254426252995573 0.6379713044522088 0.0
C C 0.1265452197261183 -0.917273763258139 0.6884196855582653 0.0
H H 0.05163521972611829 -0.9481337632581393 0.6757796855582653 0.0
C C 0.09019816575974553 -0.8779937320005756 0.7376184557474799 0.0
H H -0.008711834240254516 -0.8785537320005756 0.7592784557474799 0.0
C C 0.19806413372511306 -0.8352279071999019 0.747618769240653 0.0
C C 0.36159072816446575 -0.836506005898951 0.7218979131724101 0.0
C C 0.39674152422426223 -0.8828464264089716 0.6700179908338173 0.0
H H 0.4943515242242624 -0.8808164264089716 0.6474879908338173 0.0
C C 0.5521996361844304 -1.2777708851688083 0.7519611849865814 0.0
C C 0.8081236350799339 -1.28140685177525 0.7060861843015009 0.0
C C 0.5514488136205806 -1.1566074456052233 0.5425001649027882 0.0
H H 0.5798588136205808 -1.1538774456052232 0.4943701649027883 0.0
C C 0.610634542687979 -1.2034837364001971 0.5932242853931445 0.0
H H 0.6814445426879792 -1.2318537364001974 0.5746842853931444 0.0
C C 0.5707919209133866 -1.2128315087620039 0.6465988525661949 0.0
C C 0.4877429210525354 -1.165301099297415 0.6755927124429858 0.0
H H 0.45943292105253536 -1.165471099297415 0.7237527124429858 0.0
C C 0.4379550162480213 -1.1244400745630245 0.6345700060587015 0.0
H H 0.36446501624802125 -1.0959100745630246 0.6509300060587018 0.0
O O 0.2772022930898999 -1.1403424768499544 0.40190968752259115 0.0
O O 0.07640197999454695 -1.1238286176653591 0.485215095447854 0.0
O O -0.15651579604332697 -0.8405071839741085 0.27222607557873024 0.0
O O 0.33050961563009096 -0.8702602007182982 0.17433802160584408 0.0
N N 0.09125492230170433 -0.8652605968012509 0.2408687249532149 0.0
N N 0.22937099632533725 -0.9960780282779008 0.39323563084703084 0.0
C C 0.12795527626110745 -1.1570459762310734 0.428406806126761 0.0
C C 0.05793351197497969 -1.203859724545862 0.40889005231426984 0.0
C C -0.1058243243839732 -1.21581668379622 0.4350111833951227 0.0
H H -0.1400343243839732 -1.1910866837962202 0.47227118339512264 0.0
C C 0.17839557352471175 -0.7730586181901986 0.07944646323525734 0.0
H H 0.27680557352471175 -0.7819286181901987 0.059706463235257363 0.0
C C 0.14153121109559055 -0.7987450866878824 0.14236036613569433 0.0
C C 0.002530514689451668 -0.7958697627256873 0.16452166754622313 0.0
C C 0.10331410604953443 -1.2474953020409858 0.34511867349886255 0.0
H H 0.20380410604953442 -1.240065302040986 0.32637867349886257 0.0
C C 0.23516291837421577 -0.8467518422270971 0.19105136661038588 0.0
C C -0.023746040514110556 -0.827088309732424 0.23852489122067255 0.0
C C 0.2795878854426909 -0.9984240139300437 0.3321610012128989 0.0
H H 0.33510788544269093 -1.0341940139300438 0.32193100121289897 0.0
C C 0.21169678687031304 -0.96094477001 0.2660525287397959 0.0
H H 0.24000678687031307 -0.96941477001 0.21891252873979591 0.0
C C 0.1476345894755807 -0.9116108746313213 0.2875755806974814 0.0
C C 0.11602709117433363 -0.9013563101134248 0.3518181591016271 0.0
H H 0.05604709117433364 -0.8669263101134249 0.36367815910162715 0.0
C C 0.1467933631769727 -0.9475169602102054 0.41367792131996645 0.0
H H 0.1150433631769727 -0.9408969602102053 0.46075792131996646 0.0
