_cell_length_a 8.39304
_cell_length_b 22.23511
_cell_length_c 18.74218
_cell_angle_alpha 90.0
_cell_angle_beta 94.0312
_cell_angle_gamma 90.0
_symmetry_space_group_name_H-M         'P 1'
_symmetry_Int_Tables_number            1
loop_
_symmetry_equiv_pos_as_xyz
   'x, y, z'
                         
loop_
_atom_site_label
_atom_site_type_symbol
_atom_site_fract_x 
_atom_site_fract_y
_atom_site_fract_z
_atom_site_charge
Cd Cd 0.315766 0.55695818 0.987122 0.0
O O 0.42946 0.4598519 1.05622 0.0
O O 0.20676 0.50672 1.07852 0.0
O O 0.89377 0.77023 1.16124 0.0
O O 0.41518 0.77133 1.26424 0.0
N N 0.45557 0.62132 1.06493 0.0
N N 0.64098 0.75723 1.20093 0.0
C C 0.30649 0.46583 1.09023 0.0
C C 0.27549 0.41993 1.14703 0.0
C C 0.13291 0.42244 1.17984 0.0
H H 0.058 0.4533 1.1672 0.0
C C 0.09811 0.37964 1.23174 0.0
H H -0.0008 0.3802 1.2534 0.0
C C 0.21101 0.33733 1.24974 0.0
C C 0.35399 0.33603 1.21804 0.0
C C 0.38969 0.37623 1.16533 0.0
H H 0.4873 0.3742 1.1428 0.0
C C 0.548611 0.78574 1.25174 0.0
C C 0.79011 0.78654 1.19824 0.0
C C 0.55629 0.66163 1.04303 0.0
H H 0.5847 0.6589 0.9949 0.0
C C 0.62369 0.70763 1.08474 0.0
H H 0.6945 0.736 1.0662 0.0
C C 0.58239 0.71013 1.15534 0.0
C C 0.47871 0.66763 1.17964 0.0
H H 0.4504 0.6678 1.2278 0.0
C C 0.41799 0.62493 1.13214 0.0
H H 0.3445 0.5964 1.1485 0.0
O O 0.27196 0.6407819 0.90842 0.0
O O 0.09036 0.62312 0.98632 0.0
O O -0.14407 0.33953 0.76383 0.0
O O 0.34277 0.37602 0.67463 0.0
N N 0.11027 0.36823 0.73563 0.0
N N 0.22467 0.49472 0.89713 0.0
C C 0.14329 0.65333 0.93603 0.0
C C 0.04629 0.70663 0.90864 0.0
C C -0.09779 0.71893 0.93674 0.0
H H -0.132 0.6942 0.974 0.0
C C 0.19529 0.26693 0.58854 0.0
H H 0.2937 0.2758 0.5688 0.0
C C 0.13909 0.30073 0.64414 0.0
C C -0.00591 0.28823 0.67124 0.0
C C 0.10161 0.74253 0.85394 0.0
H H 0.2021 0.7351 0.8352 0.0
C C 0.21631 0.35183 0.68334 0.0
C C -0.02961 0.33254 0.72984 0.0
C C 0.26208 0.50433 0.82933 0.0
H H 0.3176 0.5401 0.8191 0.0
C C 0.22379 0.46483 0.77384 0.0
H H 0.2521 0.4733 0.7267 0.0
C C 0.14259 0.41213 0.78894 0.0
C C 0.09708 0.40303 0.85784 0.0
H H 0.0371 0.3686 0.8697 0.0
C C 0.14135 0.44522 0.90762 0.0
H H 0.1096 0.4386 0.9547 0.0
Cd Cd -0.315766 1.05695818 -0.48712200000000005 0.0
O O -0.42946 0.9598519 -0.5562199999999999 0.0
O O -0.20676 1.00672 -0.5785199999999999 0.0
O O -0.89377 1.27023 -0.66124 0.0
O O -0.41518 1.2713299999999998 -0.76424 0.0
N N -0.45557 1.1213199999999999 -0.5649299999999999 0.0
N N -0.64098 1.2572299999999998 -0.70093 0.0
C C -0.30649 0.96583 -0.59023 0.0
C C -0.27549 0.91993 -0.64703 0.0
C C -0.13291 0.9224399999999999 -0.67984 0.0
H H -0.058 0.9533 -0.6672 0.0
C C -0.09811 0.87964 -0.7317400000000001 0.0
H H 0.0008 0.8802 -0.7534000000000001 0.0
C C -0.21101 0.83733 -0.7497400000000001 0.0
C C -0.35399 0.83603 -0.71804 0.0
C C -0.38969 0.8762300000000001 -0.66533 0.0
H H -0.4873 0.8742 -0.6428 0.0
C C -0.548611 1.28574 -0.7517400000000001 0.0
C C -0.79011 1.28654 -0.69824 0.0
C C -0.55629 1.1616300000000002 -0.5430299999999999 0.0
H H -0.5847 1.1589 -0.4949 0.0
C C -0.62369 1.20763 -0.58474 0.0
H H -0.6945 1.236 -0.5662 0.0
C C -0.58239 1.21013 -0.65534 0.0
C C -0.47871 1.16763 -0.67964 0.0
H H -0.4504 1.1678 -0.7278 0.0
C C -0.41799 1.12493 -0.6321399999999999 0.0
H H -0.3445 1.0964 -0.6485000000000001 0.0
O O -0.27196 1.1407819 -0.40842 0.0
O O -0.09036 1.1231200000000001 -0.48632 0.0
O O 0.14407 0.83953 -0.26383 0.0
O O -0.34277 0.87602 -0.17462999999999995 0.0
N N -0.11027 0.8682300000000001 -0.23563 0.0
N N -0.22467 0.99472 -0.39713 0.0
C C -0.14329 1.15333 -0.43603000000000003 0.0
C C -0.04629 1.20663 -0.40864 0.0
C C 0.09779 1.2189299999999998 -0.43674 0.0
H H 0.132 1.1942 -0.474 0.0
C C -0.19529 0.76693 -0.08853999999999995 0.0
H H -0.2937 0.7758 -0.06879999999999997 0.0
C C -0.13909 0.8007299999999999 -0.14414000000000005 0.0
C C 0.00591 0.78823 -0.17123999999999995 0.0
C C -0.10161 1.24253 -0.35394000000000003 0.0
H H -0.2021 1.2351 -0.33520000000000005 0.0
C C -0.21631 0.85183 -0.18333999999999995 0.0
C C 0.02961 0.8325400000000001 -0.22984000000000004 0.0
C C -0.26208 1.00433 -0.32933 0.0
H H -0.3176 1.0401 -0.31910000000000005 0.0
C C -0.22379 0.9648300000000001 -0.27384 0.0
H H -0.2521 0.9733 -0.2267 0.0
C C -0.14259 0.91213 -0.28894 0.0
C C -0.09708 0.90303 -0.35784000000000005 0.0
H H -0.0371 0.8686 -0.36970000000000003 0.0
C C -0.14135 0.94522 -0.40762 0.0
H H -0.1096 0.9386 -0.4547 0.0
Cd Cd -0.315766 -0.55695818 -0.987122 0.0
O O -0.42946 -0.4598519 -1.05622 0.0
O O -0.20676 -0.50672 -1.07852 0.0
O O -0.89377 -0.77023 -1.16124 0.0
O O -0.41518 -0.77133 -1.26424 0.0
N N -0.45557 -0.62132 -1.06493 0.0
N N -0.64098 -0.75723 -1.20093 0.0
C C -0.30649 -0.46583 -1.09023 0.0
C C -0.27549 -0.41993 -1.14703 0.0
C C -0.13291 -0.42244 -1.17984 0.0
H H -0.058 -0.4533 -1.1672 0.0
C C -0.09811 -0.37964 -1.23174 0.0
H H 0.0008 -0.3802 -1.2534 0.0
C C -0.21101 -0.33733 -1.24974 0.0
C C -0.35399 -0.33603 -1.21804 0.0
C C -0.38969 -0.37623 -1.16533 0.0
H H -0.4873 -0.3742 -1.1428 0.0
C C -0.548611 -0.78574 -1.25174 0.0
C C -0.79011 -0.78654 -1.19824 0.0
C C -0.55629 -0.66163 -1.04303 0.0
H H -0.5847 -0.6589 -0.9949 0.0
C C -0.62369 -0.70763 -1.08474 0.0
H H -0.6945 -0.736 -1.0662 0.0
C C -0.58239 -0.71013 -1.15534 0.0
C C -0.47871 -0.66763 -1.17964 0.0
H H -0.4504 -0.6678 -1.2278 0.0
C C -0.41799 -0.62493 -1.13214 0.0
H H -0.3445 -0.5964 -1.1485 0.0
O O -0.27196 -0.6407819 -0.90842 0.0
O O -0.09036 -0.62312 -0.98632 0.0
O O 0.14407 -0.33953 -0.76383 0.0
O O -0.34277 -0.37602 -0.67463 0.0
N N -0.11027 -0.36823 -0.73563 0.0
N N -0.22467 -0.49472 -0.89713 0.0
C C -0.14329 -0.65333 -0.93603 0.0
C C -0.04629 -0.70663 -0.90864 0.0
C C 0.09779 -0.71893 -0.93674 0.0
H H 0.132 -0.6942 -0.974 0.0
C C -0.19529 -0.26693 -0.58854 0.0
H H -0.2937 -0.2758 -0.5688 0.0
C C -0.13909 -0.30073 -0.64414 0.0
C C 0.00591 -0.28823 -0.67124 0.0
C C -0.10161 -0.74253 -0.85394 0.0
H H -0.2021 -0.7351 -0.8352 0.0
C C -0.21631 -0.35183 -0.68334 0.0
C C 0.02961 -0.33254 -0.72984 0.0
C C -0.26208 -0.50433 -0.82933 0.0
H H -0.3176 -0.5401 -0.8191 0.0
C C -0.22379 -0.46483 -0.77384 0.0
H H -0.2521 -0.4733 -0.7267 0.0
C C -0.14259 -0.41213 -0.78894 0.0
C C -0.09708 -0.40303 -0.85784 0.0
H H -0.0371 -0.3686 -0.8697 0.0
C C -0.14135 -0.44522 -0.90762 0.0
H H -0.1096 -0.4386 -0.9547 0.0
Cd Cd 0.315766 -1.05695818 0.48712200000000005 0.0
O O 0.42946 -0.9598519 0.5562199999999999 0.0
O O 0.20676 -1.00672 0.5785199999999999 0.0
O O 0.89377 -1.27023 0.66124 0.0
O O 0.41518 -1.2713299999999998 0.76424 0.0
N N 0.45557 -1.1213199999999999 0.5649299999999999 0.0
N N 0.64098 -1.2572299999999998 0.70093 0.0
C C 0.30649 -0.96583 0.59023 0.0
C C 0.27549 -0.91993 0.64703 0.0
C C 0.13291 -0.9224399999999999 0.67984 0.0
H H 0.058 -0.9533 0.6672 0.0
C C 0.09811 -0.87964 0.7317400000000001 0.0
H H -0.0008 -0.8802 0.7534000000000001 0.0
C C 0.21101 -0.83733 0.7497400000000001 0.0
C C 0.35399 -0.83603 0.71804 0.0
C C 0.38969 -0.8762300000000001 0.66533 0.0
H H 0.4873 -0.8742 0.6428 0.0
C C 0.548611 -1.28574 0.7517400000000001 0.0
C C 0.79011 -1.28654 0.69824 0.0
C C 0.55629 -1.1616300000000002 0.5430299999999999 0.0
H H 0.5847 -1.1589 0.4949 0.0
C C 0.62369 -1.20763 0.58474 0.0
H H 0.6945 -1.236 0.5662 0.0
C C 0.58239 -1.21013 0.65534 0.0
C C 0.47871 -1.16763 0.67964 0.0
H H 0.4504 -1.1678 0.7278 0.0
C C 0.41799 -1.12493 0.6321399999999999 0.0
H H 0.3445 -1.0964 0.6485000000000001 0.0
O O 0.27196 -1.1407819 0.40842 0.0
O O 0.09036 -1.1231200000000001 0.48632 0.0
O O -0.14407 -0.83953 0.26383 0.0
O O 0.34277 -0.87602 0.17462999999999995 0.0
N N 0.11027 -0.8682300000000001 0.23563 0.0
N N 0.22467 -0.99472 0.39713 0.0
C C 0.14329 -1.15333 0.43603000000000003 0.0
C C 0.04629 -1.20663 0.40864 0.0
C C -0.09779 -1.2189299999999998 0.43674 0.0
H H -0.132 -1.1942 0.474 0.0
C C 0.19529 -0.76693 0.08853999999999995 0.0
H H 0.2937 -0.7758 0.06879999999999997 0.0
C C 0.13909 -0.8007299999999999 0.14414000000000005 0.0
C C -0.00591 -0.78823 0.17123999999999995 0.0
C C 0.10161 -1.24253 0.35394000000000003 0.0
H H 0.2021 -1.2351 0.33520000000000005 0.0
C C 0.21631 -0.85183 0.18333999999999995 0.0
C C -0.02961 -0.8325400000000001 0.22984000000000004 0.0
C C 0.26208 -1.00433 0.32933 0.0
H H 0.3176 -1.0401 0.31910000000000005 0.0
C C 0.22379 -0.9648300000000001 0.27384 0.0
H H 0.2521 -0.9733 0.2267 0.0
C C 0.14259 -0.91213 0.28894 0.0
C C 0.09708 -0.90303 0.35784000000000005 0.0
H H 0.0371 -0.8686 0.36970000000000003 0.0
C C 0.14135 -0.94522 0.40762 0.0
H H 0.1096 -0.9386 0.4547 0.0
_cell_length_a 8.39304
_cell_length_b 22.23511
_cell_length_c 18.74218
_cell_angle_alpha 90.0
_cell_angle_beta 94.0312
_cell_angle_gamma 90.0
_symmetry_space_group_name_H-M         'P 1'
_symmetry_Int_Tables_number            1
loop_
_symmetry_equiv_pos_as_xyz
   'x, y, z'
                         
loop_
_atom_site_label
_atom_site_type_symbol
_atom_site_fract_x 
_atom_site_fract_y
_atom_site_fract_z
_atom_site_charge
Cd Cd 0.315766 0.55695818 0.987122 0.0
O O 0.42946 0.4598519 1.05622 0.0
O O 0.20676 0.50672 1.07852 0.0
O O 0.89377 0.77023 1.16124 0.0
O O 0.41518 0.77133 1.26424 0.0
N N 0.45557 0.62132 1.06493 0.0
N N 0.64098 0.75723 1.20093 0.0
C C 0.30649 0.46583 1.09023 0.0
C C 0.27549 0.41993 1.14703 0.0
C C 0.13291 0.42244 1.17984 0.0
H H 0.058 0.4533 1.1672 0.0
C C 0.09811 0.37964 1.23174 0.0
H H -0.0008 0.3802 1.2534 0.0
C C 0.21101 0.33733 1.24974 0.0
C C 0.35399 0.33603 1.21804 0.0
C C 0.38969 0.37623 1.16533 0.0
H H 0.4873 0.3742 1.1428 0.0
C C 0.548611 0.78574 1.25174 0.0
C C 0.79011 0.78654 1.19824 0.0
C C 0.55629 0.66163 1.04303 0.0
H H 0.5847 0.6589 0.9949 0.0
C C 0.62369 0.70763 1.08474 0.0
H H 0.6945 0.736 1.0662 0.0
C C 0.58239 0.71013 1.15534 0.0
C C 0.47871 0.66763 1.17964 0.0
H H 0.4504 0.6678 1.2278 0.0
C C 0.41799 0.62493 1.13214 0.0
H H 0.3445 0.5964 1.1485 0.0
O O 0.27196 0.6407819 0.90842 0.0
O O 0.09036 0.62312 0.98632 0.0
O O -0.14407 0.33953 0.76383 0.0
O O 0.34277 0.37602 0.67463 0.0
N N 0.11027 0.36823 0.73563 0.0
N N 0.22467 0.49472 0.89713 0.0
C C 0.14329 0.65333 0.93603 0.0
C C 0.04629 0.70663 0.90864 0.0
C C -0.09779 0.71893 0.93674 0.0
H H -0.132 0.6942 0.974 0.0
C C 0.19529 0.26693 0.58854 0.0
H H 0.2937 0.2758 0.5688 0.0
C C 0.13909 0.30073 0.64414 0.0
C C -0.00591 0.28823 0.67124 0.0
C C 0.10161 0.74253 0.85394 0.0
H H 0.2021 0.7351 0.8352 0.0
C C 0.21631 0.35183 0.68334 0.0
C C -0.02961 0.33254 0.72984 0.0
C C 0.26208 0.50433 0.82933 0.0
H H 0.3176 0.5401 0.8191 0.0
C C 0.22379 0.46483 0.77384 0.0
H H 0.2521 0.4733 0.7267 0.0
C C 0.14259 0.41213 0.78894 0.0
C C 0.09708 0.40303 0.85784 0.0
H H 0.0371 0.3686 0.8697 0.0
C C 0.14135 0.44522 0.90762 0.0
H H 0.1096 0.4386 0.9547 0.0
Cd Cd -0.315766 1.05695818 -0.48712200000000005 0.0
O O -0.42946 0.9598519 -0.5562199999999999 0.0
O O -0.20676 1.00672 -0.5785199999999999 0.0
O O -0.89377 1.27023 -0.66124 0.0
O O -0.41518 1.2713299999999998 -0.76424 0.0
N N -0.45557 1.1213199999999999 -0.5649299999999999 0.0
N N -0.64098 1.2572299999999998 -0.70093 0.0
C C -0.30649 0.96583 -0.59023 0.0
C C -0.27549 0.91993 -0.64703 0.0
C C -0.13291 0.9224399999999999 -0.67984 0.0
H H -0.058 0.9533 -0.6672 0.0
C C -0.09811 0.87964 -0.7317400000000001 0.0
H H 0.0008 0.8802 -0.7534000000000001 0.0
C C -0.21101 0.83733 -0.7497400000000001 0.0
C C -0.35399 0.83603 -0.71804 0.0
C C -0.38969 0.8762300000000001 -0.66533 0.0
H H -0.4873 0.8742 -0.6428 0.0
C C -0.548611 1.28574 -0.7517400000000001 0.0
C C -0.79011 1.28654 -0.69824 0.0
C C -0.55629 1.1616300000000002 -0.5430299999999999 0.0
H H -0.5847 1.1589 -0.4949 0.0
C C -0.62369 1.20763 -0.58474 0.0
H H -0.6945 1.236 -0.5662 0.0
C C -0.58239 1.21013 -0.65534 0.0
C C -0.47871 1.16763 -0.67964 0.0
H H -0.4504 1.1678 -0.7278 0.0
C C -0.41799 1.12493 -0.6321399999999999 0.0
H H -0.3445 1.0964 -0.6485000000000001 0.0
O O -0.27196 1.1407819 -0.40842 0.0
O O -0.09036 1.1231200000000001 -0.48632 0.0
O O 0.14407 0.83953 -0.26383 0.0
O O -0.34277 0.87602 -0.17462999999999995 0.0
N N -0.11027 0.8682300000000001 -0.23563 0.0
N N -0.22467 0.99472 -0.39713 0.0
C C -0.14329 1.15333 -0.43603000000000003 0.0
C C -0.04629 1.20663 -0.40864 0.0
C C 0.09779 1.2189299999999998 -0.43674 0.0
H H 0.132 1.1942 -0.474 0.0
C C -0.19529 0.76693 -0.08853999999999995 0.0
H H -0.2937 0.7758 -0.06879999999999997 0.0
C C -0.13909 0.8007299999999999 -0.14414000000000005 0.0
C C 0.00591 0.78823 -0.17123999999999995 0.0
C C -0.10161 1.24253 -0.35394000000000003 0.0
H H -0.2021 1.2351 -0.33520000000000005 0.0
C C -0.21631 0.85183 -0.18333999999999995 0.0
C C 0.02961 0.8325400000000001 -0.22984000000000004 0.0
C C -0.26208 1.00433 -0.32933 0.0
H H -0.3176 1.0401 -0.31910000000000005 0.0
C C -0.22379 0.9648300000000001 -0.27384 0.0
H H -0.2521 0.9733 -0.2267 0.0
C C -0.14259 0.91213 -0.28894 0.0
C C -0.09708 0.90303 -0.35784000000000005 0.0
H H -0.0371 0.8686 -0.36970000000000003 0.0
C C -0.14135 0.94522 -0.40762 0.0
H H -0.1096 0.9386 -0.4547 0.0
Cd Cd -0.315766 -0.55695818 -0.987122 0.0
O O -0.42946 -0.4598519 -1.05622 0.0
O O -0.20676 -0.50672 -1.07852 0.0
O O -0.89377 -0.77023 -1.16124 0.0
O O -0.41518 -0.77133 -1.26424 0.0
N N -0.45557 -0.62132 -1.06493 0.0
N N -0.64098 -0.75723 -1.20093 0.0
C C -0.30649 -0.46583 -1.09023 0.0
C C -0.27549 -0.41993 -1.14703 0.0
C C -0.13291 -0.42244 -1.17984 0.0
H H -0.058 -0.4533 -1.1672 0.0
C C -0.09811 -0.37964 -1.23174 0.0
H H 0.0008 -0.3802 -1.2534 0.0
C C -0.21101 -0.33733 -1.24974 0.0
C C -0.35399 -0.33603 -1.21804 0.0
C C -0.38969 -0.37623 -1.16533 0.0
H H -0.4873 -0.3742 -1.1428 0.0
C C -0.548611 -0.78574 -1.25174 0.0
C C -0.79011 -0.78654 -1.19824 0.0
C C -0.55629 -0.66163 -1.04303 0.0
H H -0.5847 -0.6589 -0.9949 0.0
C C -0.62369 -0.70763 -1.08474 0.0
H H -0.6945 -0.736 -1.0662 0.0
C C -0.58239 -0.71013 -1.15534 0.0
C C -0.47871 -0.66763 -1.17964 0.0
H H -0.4504 -0.6678 -1.2278 0.0
C C -0.41799 -0.62493 -1.13214 0.0
H H -0.3445 -0.5964 -1.1485 0.0
O O -0.27196 -0.6407819 -0.90842 0.0
O O -0.09036 -0.62312 -0.98632 0.0
O O 0.14407 -0.33953 -0.76383 0.0
O O -0.34277 -0.37602 -0.67463 0.0
N N -0.11027 -0.36823 -0.73563 0.0
N N -0.22467 -0.49472 -0.89713 0.0
C C -0.14329 -0.65333 -0.93603 0.0
C C -0.04629 -0.70663 -0.90864 0.0
C C 0.09779 -0.71893 -0.93674 0.0
H H 0.132 -0.6942 -0.974 0.0
C C -0.19529 -0.26693 -0.58854 0.0
H H -0.2937 -0.2758 -0.5688 0.0
C C -0.13909 -0.30073 -0.64414 0.0
C C 0.00591 -0.28823 -0.67124 0.0
C C -0.10161 -0.74253 -0.85394 0.0
H H -0.2021 -0.7351 -0.8352 0.0
C C -0.21631 -0.35183 -0.68334 0.0
C C 0.02961 -0.33254 -0.72984 0.0
C C -0.26208 -0.50433 -0.82933 0.0
H H -0.3176 -0.5401 -0.8191 0.0
C C -0.22379 -0.46483 -0.77384 0.0
H H -0.2521 -0.4733 -0.7267 0.0
C C -0.14259 -0.41213 -0.78894 0.0
C C -0.09708 -0.40303 -0.85784 0.0
H H -0.0371 -0.3686 -0.8697 0.0
C C -0.14135 -0.44522 -0.90762 0.0
H H -0.1096 -0.4386 -0.9547 0.0
Cd Cd 0.315766 -1.05695818 0.48712200000000005 0.0
O O 0.42946 -0.9598519 0.5562199999999999 0.0
O O 0.20676 -1.00672 0.5785199999999999 0.0
O O 0.89377 -1.27023 0.66124 0.0
O O 0.41518 -1.2713299999999998 0.76424 0.0
N N 0.45557 -1.1213199999999999 0.5649299999999999 0.0
N N 0.64098 -1.2572299999999998 0.70093 0.0
C C 0.30649 -0.96583 0.59023 0.0
C C 0.27549 -0.91993 0.64703 0.0
C C 0.13291 -0.9224399999999999 0.67984 0.0
H H 0.058 -0.9533 0.6672 0.0
C C 0.09811 -0.87964 0.7317400000000001 0.0
H H -0.0008 -0.8802 0.7534000000000001 0.0
C C 0.21101 -0.83733 0.7497400000000001 0.0
C C 0.35399 -0.83603 0.71804 0.0
C C 0.38969 -0.8762300000000001 0.66533 0.0
H H 0.4873 -0.8742 0.6428 0.0
C C 0.548611 -1.28574 0.7517400000000001 0.0
C C 0.79011 -1.28654 0.69824 0.0
C C 0.55629 -1.1616300000000002 0.5430299999999999 0.0
H H 0.5847 -1.1589 0.4949 0.0
C C 0.62369 -1.20763 0.58474 0.0
H H 0.6945 -1.236 0.5662 0.0
C C 0.58239 -1.21013 0.65534 0.0
C C 0.47871 -1.16763 0.67964 0.0
H H 0.4504 -1.1678 0.7278 0.0
C C 0.41799 -1.12493 0.6321399999999999 0.0
H H 0.3445 -1.0964 0.6485000000000001 0.0
O O 0.27196 -1.1407819 0.40842 0.0
O O 0.09036 -1.1231200000000001 0.48632 0.0
O O -0.14407 -0.83953 0.26383 0.0
O O 0.34277 -0.87602 0.17462999999999995 0.0
N N 0.11027 -0.8682300000000001 0.23563 0.0
N N 0.22467 -0.99472 0.39713 0.0
C C 0.14329 -1.15333 0.43603000000000003 0.0
C C 0.04629 -1.20663 0.40864 0.0
C C -0.09779 -1.2189299999999998 0.43674 0.0
H H -0.132 -1.1942 0.474 0.0
C C 0.19529 -0.76693 0.08853999999999995 0.0
H H 0.2937 -0.7758 0.06879999999999997 0.0
C C 0.13909 -0.8007299999999999 0.14414000000000005 0.0
C C -0.00591 -0.78823 0.17123999999999995 0.0
C C 0.10161 -1.24253 0.35394000000000003 0.0
H H 0.2021 -1.2351 0.33520000000000005 0.0
C C 0.21631 -0.85183 0.18333999999999995 0.0
C C -0.02961 -0.8325400000000001 0.22984000000000004 0.0
C C 0.26208 -1.00433 0.32933 0.0
H H 0.3176 -1.0401 0.31910000000000005 0.0
C C 0.22379 -0.9648300000000001 0.27384 0.0
H H 0.2521 -0.9733 0.2267 0.0
C C 0.14259 -0.91213 0.28894 0.0
C C 0.09708 -0.90303 0.35784000000000005 0.0
H H 0.0371 -0.8686 0.36970000000000003 0.0
C C 0.14135 -0.94522 0.40762 0.0
H H 0.1096 -0.9386 0.4547 0.0
_cell_length_a 8.39304
_cell_length_b 22.23511
_cell_length_c 18.74218
_cell_angle_alpha 90.0
_cell_angle_beta 94.0312
_cell_angle_gamma 90.0
_symmetry_space_group_name_H-M         'P 1'
_symmetry_Int_Tables_number            1
loop_
_symmetry_equiv_pos_as_xyz
   'x, y, z'
                         
loop_
_atom_site_label
_atom_site_type_symbol
_atom_site_fract_x 
_atom_site_fract_y
_atom_site_fract_z
_atom_site_charge
Cd Cd 0.315766 0.55695818 0.987122 0.0
O O 0.42946 0.4598519 1.05622 0.0
O O 0.20676 0.50672 1.07852 0.0
O O 0.89377 0.77023 1.16124 0.0
O O 0.41518 0.77133 1.26424 0.0
N N 0.45557 0.62132 1.06493 0.0
N N 0.64098 0.75723 1.20093 0.0
C C 0.30649 0.46583 1.09023 0.0
C C 0.27549 0.41993 1.14703 0.0
C C 0.13291 0.42244 1.17984 0.0
H H 0.058 0.4533 1.1672 0.0
C C 0.09811 0.37964 1.23174 0.0
H H -0.0008 0.3802 1.2534 0.0
C C 0.21101 0.33733 1.24974 0.0
C C 0.35399 0.33603 1.21804 0.0
C C 0.38969 0.37623 1.16533 0.0
H H 0.4873 0.3742 1.1428 0.0
C C 0.548611 0.78574 1.25174 0.0
C C 0.79011 0.78654 1.19824 0.0
C C 0.55629 0.66163 1.04303 0.0
H H 0.5847 0.6589 0.9949 0.0
C C 0.62369 0.70763 1.08474 0.0
H H 0.6945 0.736 1.0662 0.0
C C 0.58239 0.71013 1.15534 0.0
C C 0.47871 0.66763 1.17964 0.0
H H 0.4504 0.6678 1.2278 0.0
C C 0.41799 0.62493 1.13214 0.0
H H 0.3445 0.5964 1.1485 0.0
O O 0.27196 0.6407819 0.90842 0.0
O O 0.09036 0.62312 0.98632 0.0
O O -0.14407 0.33953 0.76383 0.0
O O 0.34277 0.37602 0.67463 0.0
N N 0.11027 0.36823 0.73563 0.0
N N 0.22467 0.49472 0.89713 0.0
C C 0.14329 0.65333 0.93603 0.0
C C 0.04629 0.70663 0.90864 0.0
C C -0.09779 0.71893 0.93674 0.0
H H -0.132 0.6942 0.974 0.0
C C 0.19529 0.26693 0.58854 0.0
H H 0.2937 0.2758 0.5688 0.0
C C 0.13909 0.30073 0.64414 0.0
C C -0.00591 0.28823 0.67124 0.0
C C 0.10161 0.74253 0.85394 0.0
H H 0.2021 0.7351 0.8352 0.0
C C 0.21631 0.35183 0.68334 0.0
C C -0.02961 0.33254 0.72984 0.0
C C 0.26208 0.50433 0.82933 0.0
H H 0.3176 0.5401 0.8191 0.0
C C 0.22379 0.46483 0.77384 0.0
H H 0.2521 0.4733 0.7267 0.0
C C 0.14259 0.41213 0.78894 0.0
C C 0.09708 0.40303 0.85784 0.0
H H 0.0371 0.3686 0.8697 0.0
C C 0.14135 0.44522 0.90762 0.0
H H 0.1096 0.4386 0.9547 0.0
Cd Cd -0.315766 1.05695818 -0.48712200000000005 0.0
O O -0.42946 0.9598519 -0.5562199999999999 0.0
O O -0.20676 1.00672 -0.5785199999999999 0.0
O O -0.89377 1.27023 -0.66124 0.0
O O -0.41518 1.2713299999999998 -0.76424 0.0
N N -0.45557 1.1213199999999999 -0.5649299999999999 0.0
N N -0.64098 1.2572299999999998 -0.70093 0.0
C C -0.30649 0.96583 -0.59023 0.0
C C -0.27549 0.91993 -0.64703 0.0
C C -0.13291 0.9224399999999999 -0.67984 0.0
H H -0.058 0.9533 -0.6672 0.0
C C -0.09811 0.87964 -0.7317400000000001 0.0
H H 0.0008 0.8802 -0.7534000000000001 0.0
C C -0.21101 0.83733 -0.7497400000000001 0.0
C C -0.35399 0.83603 -0.71804 0.0
C C -0.38969 0.8762300000000001 -0.66533 0.0
H H -0.4873 0.8742 -0.6428 0.0
C C -0.548611 1.28574 -0.7517400000000001 0.0
C C -0.79011 1.28654 -0.69824 0.0
C C -0.55629 1.1616300000000002 -0.5430299999999999 0.0
H H -0.5847 1.1589 -0.4949 0.0
C C -0.62369 1.20763 -0.58474 0.0
H H -0.6945 1.236 -0.5662 0.0
C C -0.58239 1.21013 -0.65534 0.0
C C -0.47871 1.16763 -0.67964 0.0
H H -0.4504 1.1678 -0.7278 0.0
C C -0.41799 1.12493 -0.6321399999999999 0.0
H H -0.3445 1.0964 -0.6485000000000001 0.0
O O -0.27196 1.1407819 -0.40842 0.0
O O -0.09036 1.1231200000000001 -0.48632 0.0
O O 0.14407 0.83953 -0.26383 0.0
O O -0.34277 0.87602 -0.17462999999999995 0.0
N N -0.11027 0.8682300000000001 -0.23563 0.0
N N -0.22467 0.99472 -0.39713 0.0
C C -0.14329 1.15333 -0.43603000000000003 0.0
C C -0.04629 1.20663 -0.40864 0.0
C C 0.09779 1.2189299999999998 -0.43674 0.0
H H 0.132 1.1942 -0.474 0.0
C C -0.19529 0.76693 -0.08853999999999995 0.0
H H -0.2937 0.7758 -0.06879999999999997 0.0
C C -0.13909 0.8007299999999999 -0.14414000000000005 0.0
C C 0.00591 0.78823 -0.17123999999999995 0.0
C C -0.10161 1.24253 -0.35394000000000003 0.0
H H -0.2021 1.2351 -0.33520000000000005 0.0
C C -0.21631 0.85183 -0.18333999999999995 0.0
C C 0.02961 0.8325400000000001 -0.22984000000000004 0.0
C C -0.26208 1.00433 -0.32933 0.0
H H -0.3176 1.0401 -0.31910000000000005 0.0
C C -0.22379 0.9648300000000001 -0.27384 0.0
H H -0.2521 0.9733 -0.2267 0.0
C C -0.14259 0.91213 -0.28894 0.0
C C -0.09708 0.90303 -0.35784000000000005 0.0
H H -0.0371 0.8686 -0.36970000000000003 0.0
C C -0.14135 0.94522 -0.40762 0.0
H H -0.1096 0.9386 -0.4547 0.0
Cd Cd -0.315766 -0.55695818 -0.987122 0.0
O O -0.42946 -0.4598519 -1.05622 0.0
O O -0.20676 -0.50672 -1.07852 0.0
O O -0.89377 -0.77023 -1.16124 0.0
O O -0.41518 -0.77133 -1.26424 0.0
N N -0.45557 -0.62132 -1.06493 0.0
N N -0.64098 -0.75723 -1.20093 0.0
C C -0.30649 -0.46583 -1.09023 0.0
C C -0.27549 -0.41993 -1.14703 0.0
C C -0.13291 -0.42244 -1.17984 0.0
H H -0.058 -0.4533 -1.1672 0.0
C C -0.09811 -0.37964 -1.23174 0.0
H H 0.0008 -0.3802 -1.2534 0.0
C C -0.21101 -0.33733 -1.24974 0.0
C C -0.35399 -0.33603 -1.21804 0.0
C C -0.38969 -0.37623 -1.16533 0.0
H H -0.4873 -0.3742 -1.1428 0.0
C C -0.548611 -0.78574 -1.25174 0.0
C C -0.79011 -0.78654 -1.19824 0.0
C C -0.55629 -0.66163 -1.04303 0.0
H H -0.5847 -0.6589 -0.9949 0.0
C C -0.62369 -0.70763 -1.08474 0.0
H H -0.6945 -0.736 -1.0662 0.0
C C -0.58239 -0.71013 -1.15534 0.0
C C -0.47871 -0.66763 -1.17964 0.0
H H -0.4504 -0.6678 -1.2278 0.0
C C -0.41799 -0.62493 -1.13214 0.0
H H -0.3445 -0.5964 -1.1485 0.0
O O -0.27196 -0.6407819 -0.90842 0.0
O O -0.09036 -0.62312 -0.98632 0.0
O O 0.14407 -0.33953 -0.76383 0.0
O O -0.34277 -0.37602 -0.67463 0.0
N N -0.11027 -0.36823 -0.73563 0.0
N N -0.22467 -0.49472 -0.89713 0.0
C C -0.14329 -0.65333 -0.93603 0.0
C C -0.04629 -0.70663 -0.90864 0.0
C C 0.09779 -0.71893 -0.93674 0.0
H H 0.132 -0.6942 -0.974 0.0
C C -0.19529 -0.26693 -0.58854 0.0
H H -0.2937 -0.2758 -0.5688 0.0
C C -0.13909 -0.30073 -0.64414 0.0
C C 0.00591 -0.28823 -0.67124 0.0
C C -0.10161 -0.74253 -0.85394 0.0
H H -0.2021 -0.7351 -0.8352 0.0
C C -0.21631 -0.35183 -0.68334 0.0
C C 0.02961 -0.33254 -0.72984 0.0
C C -0.26208 -0.50433 -0.82933 0.0
H H -0.3176 -0.5401 -0.8191 0.0
C C -0.22379 -0.46483 -0.77384 0.0
H H -0.2521 -0.4733 -0.7267 0.0
C C -0.14259 -0.41213 -0.78894 0.0
C C -0.09708 -0.40303 -0.85784 0.0
H H -0.0371 -0.3686 -0.8697 0.0
C C -0.14135 -0.44522 -0.90762 0.0
H H -0.1096 -0.4386 -0.9547 0.0
Cd Cd 0.315766 -1.05695818 0.48712200000000005 0.0
O O 0.42946 -0.9598519 0.5562199999999999 0.0
O O 0.20676 -1.00672 0.5785199999999999 0.0
O O 0.89377 -1.27023 0.66124 0.0
O O 0.41518 -1.2713299999999998 0.76424 0.0
N N 0.45557 -1.1213199999999999 0.5649299999999999 0.0
N N 0.64098 -1.2572299999999998 0.70093 0.0
C C 0.30649 -0.96583 0.59023 0.0
C C 0.27549 -0.91993 0.64703 0.0
C C 0.13291 -0.9224399999999999 0.67984 0.0
H H 0.058 -0.9533 0.6672 0.0
C C 0.09811 -0.87964 0.7317400000000001 0.0
H H -0.0008 -0.8802 0.7534000000000001 0.0
C C 0.21101 -0.83733 0.7497400000000001 0.0
C C 0.35399 -0.83603 0.71804 0.0
C C 0.38969 -0.8762300000000001 0.66533 0.0
H H 0.4873 -0.8742 0.6428 0.0
C C 0.548611 -1.28574 0.7517400000000001 0.0
C C 0.79011 -1.28654 0.69824 0.0
C C 0.55629 -1.1616300000000002 0.5430299999999999 0.0
H H 0.5847 -1.1589 0.4949 0.0
C C 0.62369 -1.20763 0.58474 0.0
H H 0.6945 -1.236 0.5662 0.0
C C 0.58239 -1.21013 0.65534 0.0
C C 0.47871 -1.16763 0.67964 0.0
H H 0.4504 -1.1678 0.7278 0.0
C C 0.41799 -1.12493 0.6321399999999999 0.0
H H 0.3445 -1.0964 0.6485000000000001 0.0
O O 0.27196 -1.1407819 0.40842 0.0
O O 0.09036 -1.1231200000000001 0.48632 0.0
O O -0.14407 -0.83953 0.26383 0.0
O O 0.34277 -0.87602 0.17462999999999995 0.0
N N 0.11027 -0.8682300000000001 0.23563 0.0
N N 0.22467 -0.99472 0.39713 0.0
C C 0.14329 -1.15333 0.43603000000000003 0.0
C C 0.04629 -1.20663 0.40864 0.0
C C -0.09779 -1.2189299999999998 0.43674 0.0
H H -0.132 -1.1942 0.474 0.0
C C 0.19529 -0.76693 0.08853999999999995 0.0
H H 0.2937 -0.7758 0.06879999999999997 0.0
C C 0.13909 -0.8007299999999999 0.14414000000000005 0.0
C C -0.00591 -0.78823 0.17123999999999995 0.0
C C 0.10161 -1.24253 0.35394000000000003 0.0
H H 0.2021 -1.2351 0.33520000000000005 0.0
C C 0.21631 -0.85183 0.18333999999999995 0.0
C C -0.02961 -0.8325400000000001 0.22984000000000004 0.0
C C 0.26208 -1.00433 0.32933 0.0
H H 0.3176 -1.0401 0.31910000000000005 0.0
C C 0.22379 -0.9648300000000001 0.27384 0.0
H H 0.2521 -0.9733 0.2267 0.0
C C 0.14259 -0.91213 0.28894 0.0
C C 0.09708 -0.90303 0.35784000000000005 0.0
H H 0.0371 -0.8686 0.36970000000000003 0.0
C C 0.14135 -0.94522 0.40762 0.0
H H 0.1096 -0.9386 0.4547 0.0
