_cell_length_a 12.935
_cell_length_b 23.242012
_cell_length_c 12.93505
_cell_angle_alpha 90.0
_cell_angle_beta 90.0
_cell_angle_gamma 90.0
_symmetry_space_group_name_H-M         'P 1'
_symmetry_Int_Tables_number            1
loop_
_symmetry_equiv_pos_as_xyz
   'x, y, z'
                         
loop_
_atom_site_label
_atom_site_type_symbol
_atom_site_fract_x 
_atom_site_fract_y
_atom_site_fract_z
_atom_site_charge
C C 0.547180606268524 1.1953591086158775 0.6431297670343005 0.0
C C 0.43035177228659605 1.206752079248747 0.6252754188179885 0.0
C C 0.3654956178289986 1.1584486463521941 0.6583986054548941 0.0
H H 0.39884561782899863 1.1220186463521942 0.6558486054548942 0.0
C C 0.24813241942595102 1.1466124026549738 0.6384758867604057 0.0
C C 0.22809685429188234 1.2231047077481791 0.6625144326512912 0.0
C C 0.2748583176212987 1.265073973523174 0.6465285649846406 0.0
H H 0.24460831762129875 1.302243973523174 0.6489885649846407 0.0
C C 0.39427166967220434 1.26594828722192 0.640126677762089 0.0
H H 0.43952166967220424 1.2980182872219201 0.638776677762089 0.0
C C 0.20610530516206504 1.1068595659861895 0.6238281081067971 0.0
H H 0.232445305162065 1.0690295659861895 0.6157681081067972 0.0
C C 0.10549300323634085 1.1213876088569392 0.6392653109060027 0.0
H H 0.06294300323634087 1.0885476088569392 0.6500153109060026 0.0
C C 0.030177017034660608 1.1723623474703553 0.6499120351372975 0.0
C C 0.10931246631790313 1.2161125139686253 0.6561373925862123 0.0
H H 0.08186246631790314 1.2539825139686251 0.6538873925862122 0.0
C C 0.7621423100912464 1.1648188765223584 0.4447157191035967 0.0
C C 0.7400058487159994 1.19145254149344 0.8288929293670332 0.0
C C 0.7276878302358566 1.1991890308716238 0.9663935814089403 0.0
C C 0.7445140621589228 1.1382266109967967 1.0379930008597114 0.0
H H 0.7459640621589227 1.1003966109967966 1.0100430008597114 0.0
C C 0.756143625332058 1.1451863437759764 1.1001009798999668 0.0
C C 0.7405772618856209 1.1995076133308706 1.173793105974664 0.0
C C 0.7710128827992463 1.2647302986175883 1.0927473641330803 0.0
H H 0.7892628827992464 1.3013102986175886 1.1195973641330803 0.0
C C 0.7176750599337908 1.2587910508671645 1.0273929545322682 0.0
H H 0.6904250599337908 1.2916610508671644 0.9933429545322681 0.0
C C 0.7473255772797375 1.1049908705149725 1.1748600902577644 0.0
H H 0.7593655772797374 1.0686608705149725 1.1434100902577644 0.0
C C 0.7307414391787332 1.1047150146047588 1.2996728607890642 0.0
H H 0.7289714391787331 1.070985014604759 1.3412128607890643 0.0
C C 0.7591994199801709 1.166631339789923 1.347250715592665 0.0
C C 0.7439277902455839 1.2060726089009375 1.2806189797444725 0.0
H H 0.7576777902455838 1.2421426089009375 1.3122789797444725 0.0
C C 0.9263856675918287 1.1887250094245427 0.6591983025629349 0.0
C C 0.7474810118971889 1.0133920135759233 0.7789261428778245 0.0
H H 0.7717210118971888 1.0433620135759234 0.8224661428778245 0.0
C C 0.7602923320992153 0.951650090414598 0.8086860574115315 0.0
H H 0.7802223320992152 0.9433100904145979 0.8777260574115316 0.0
C C 0.7261497175785957 0.9319365408813838 0.75558634788182 0.0
H H 0.7489897175785958 0.8938065408813838 0.76852634788182 0.0
C C 0.6811070013855276 0.9445415072439026 0.6687246892008737 0.0
C C 0.7194253869787879 1.0000075821513656 0.6129985827302289 0.0
C C 0.6356852296028646 1.0239008119178694 0.535521084366467 0.0
H H 0.6142352296028647 1.0624708119178694 0.5241610843664669 0.0
C C 0.6000903917017126 0.9688107538881731 0.45345976012406175 0.0
H H 0.5737203917017127 0.981770753888173 0.38888976012406173 0.0
C C 0.602559197970925 0.8989388791242612 0.4805129454172733 0.0
H H 0.570289197970925 0.870698879124261 0.4380529454172733 0.0
C C 0.6393234176895073 0.8937577985115356 0.5907985430537372 0.0
C C 0.6022283159399933 0.8000610125724109 0.602846125637357 0.0
C C 0.7586978638816524 0.8084536088238488 0.5915999393278455 0.0
C C 0.7719647991396423 0.74837704810337 0.6203963078369855 0.0
C C 0.8869433199951721 0.7298145086386972 0.5672104071049737 0.0
H H 0.9412733199951719 0.7503645086386972 0.5344304071049737 0.0
C C 0.8952969655666098 0.6715667379494469 0.5959348086192338 0.0
H H 0.9647269655666098 0.6593967379494469 0.6056448086192336 0.0
C C 0.794967526881833 0.6347774654943327 0.6259177078750358 0.0
C C 0.7124260157297928 0.6690173144315715 0.6345031861932128 0.0
C C 0.6769720076874621 0.7265856735109043 0.632565373581309 0.0
C C 0.6213261306516045 0.7301667485568417 0.6346784857116453 0.0
C C 0.5107617428251291 0.7024185700803687 0.6568971439594736 0.0
H H 0.44311174282512905 0.7177885700803687 0.6640371439594737 0.0
C C 0.5326269253064391 0.6493608339324278 0.7044847058842135 0.0
H H 0.47975692530643904 0.6251208339324277 0.7310147058842137 0.0
C C 0.602205934129845 0.6288815656029831 0.67120257565653 0.0
C C 0.6377656886352691 0.5620074972504803 0.6871777780506987 0.0
C C 0.8067145178297469 0.5660046662326569 0.6471235954662199 0.0
C C 0.7659971878066326 0.4854324992072302 0.700767747545355 0.0
C C 0.81581794265184 0.4741878500363769 0.8288539778475366 0.0
H H 0.82523794265184 0.5074378500363771 0.8703639778475367 0.0
C C 0.8650090873862144 0.40519657949051785 0.8569498890823607 0.0
H H 0.9046920873862143 0.39780657949051784 0.9173338890823607 0.0
C C 0.8217623768908904 0.3470523162425191 0.7864130418015953 0.0
H H 0.8080723768908904 0.3083923162425191 0.8059030418015952 0.0
C C 0.7585665821728483 0.376749795505896 0.6547950182892506 0.0
C C 0.7313732971764585 0.4431149344764716 0.6645445818920528 0.0
C C 0.6822216227833597 0.45963893424145547 0.5404487809175995 0.0
H H 0.6729516227833597 0.49829893424145544 0.5189787809175995 0.0
C C 0.6651158750897794 0.3951777974054131 0.49148043521590384 0.0
H H 0.6254558750897793 0.3995377974054131 0.4301204352159039 0.0
C C 0.6873667139116018 0.35919186965257777 0.5074587289085102 0.0
H H 0.6832767139116017 0.3307318696525778 0.4545787289085102 0.0
N N 0.7266543329921772 1.033718490976468 0.6926913625073589 0.0
N N 0.6709628445761009 0.8295842207815414 0.5842520115427527 0.0
N N 0.7458763246831656 0.5553771053333555 0.6807119450781496 0.0
N N 0.745209754522913 0.34174682618390134 0.5858627829217606 0.0
O O 0.5894520980155443 1.1419430427946489 0.6238339715064776 0.0
O O 0.5874790138978317 1.2433049231526974 0.6361190025410176 0.0
O O 0.7459476348259201 1.1261140790217115 0.5069172386764633 0.0
O O 0.7493963335179472 1.2333928848859539 0.5089744089514023 0.0
O O 0.7248213387235198 1.1424859718762523 0.7962190263224903 0.0
O O 0.7564207795505686 1.2498165570903894 0.7868496629653324 0.0
O O 0.8833755040258976 1.1293180393523499 0.6892761655893977 0.0
O O 0.8961758271972419 1.2381514753216107 0.6473068329004046 0.0
O O 0.8428735558374821 0.8461892372115308 0.5422797396795337 0.0
O O 0.5131128839530281 0.8221873106853314 0.6532254952381239 0.0
O O 0.9421187498409587 0.5547398375821196 0.65624627141542 0.0
O O 0.5753637293153195 0.5195897374233982 0.7001583940949656 0.0
Zn Zn 0.7680274278661111 1.2392018891018153 0.635299755288655 0.0
Zn Zn 0.7096803417685456 1.1220221470135987 0.6611936632944195 0.0
C C -0.5599405360775471 1.6968787256059248 -0.6342970492981111 0.0
C C -0.4439809913157547 1.700385523537455 -0.6399394626814402 0.0
C C -0.3669495635975039 1.6542578105788486 -0.6247593066736941 0.0
H H -0.4002995635975039 1.6178278105788486 -0.622209306673694 0.0
C C -0.2568452739876928 1.650948069281499 -0.6363809646898337 0.0
C C -0.1997616864305319 1.7106135626268306 -0.6513902565594325 0.0
C C -0.2957467833792974 1.777627775685331 -0.6552957463805443 0.0
H H -0.2654967833792974 1.8147977756853308 -0.6577557463805443 0.0
C C -0.38602590604395687 1.7570372683687931 -0.6497917194041632 0.0
H H -0.4312759060439569 1.7891072683687932 -0.6484417194041633 0.0
C C -0.19841602012595377 1.6019766486250075 -0.6514474172722026 0.0
H H -0.22475602012595375 1.5641466486250075 -0.6433874172722027 0.0
C C -0.11317864137420902 1.6175630757770796 -0.6519577632225827 0.0
H H -0.07062864137420904 1.5847230757770798 -0.6627077632225826 0.0
C C -0.03109800123246069 1.674410831888643 -0.6550249523985483 0.0
C C -0.09328495767869237 1.7069568254344032 -0.6737088825281807 0.0
H H -0.06583495767869238 1.744826825434403 -0.6714588825281806 0.0
C C -0.7481426564572724 1.6627933030769204 -0.44958810190136267 0.0
C C -0.7168683825490078 1.7061714861901471 -0.8448460348910085 0.0
C C -0.7406110143406587 1.7021857793117336 -0.9652927136985981 0.0
C C -0.7590529058562575 1.658235668488238 -1.0281351282367555 0.0
H H -0.7605029058562575 1.6204056684882382 -1.0001851282367555 0.0
C C -0.7377622683670098 1.6432993303593777 -1.1223917318262433 0.0
C C -0.7459214804194734 1.718893646025135 -1.1707662034100221 0.0
C C -0.7412729672408717 1.7613549402836592 -1.1234385344157072 0.0
H H -0.7595229672408718 1.7979349402836593 -1.1502885344157072 0.0
C C -0.7175599639730421 1.7625385066302526 -1.0118600228609473 0.0
H H -0.6903099639730421 1.7954085066302528 -0.9778100228609474 0.0
C C -0.7493273515527082 1.617878281315339 -1.1979178810352782 0.0
H H -0.7613673515527082 1.5815482813153388 -1.1664678810352782 0.0
C C -0.7545032030228053 1.6068954297658715 -1.2960238749938282 0.0
H H -0.7527332030228051 1.5731654297658717 -1.3375638749938283 0.0
C C -0.7395496555534968 1.6684391453435952 -1.3419741201682271 0.0
C C -0.7394976850905572 1.718648864508082 -1.277874293600514 0.0
H H -0.7532476850905573 1.7547188645080818 -1.309534293600514 0.0
C C -0.9311505927965475 1.6765539325121193 -0.6637517844691969 0.0
C C -0.7458935200840495 1.5177295709192786 -0.7616329350312654 0.0
H H -0.7701335200840494 1.5476995709192787 -0.8051729350312654 0.0
C C -0.7895197985188405 1.4721668959209178 -0.8208436111862454 0.0
H H -0.8094497985188405 1.4638268959209177 -0.8898836111862454 0.0
C C -0.7554713653041325 1.4301603581910038 -0.7297059291329531 0.0
H H -0.7783113653041327 1.3920303581910038 -0.742645929132953 0.0
C C -0.6939881526865807 1.426543750126177 -0.6700170843862107 0.0
C C -0.6814862655463395 1.5073120037889043 -0.6160918971168632 0.0
C C -0.6312160871992958 1.5237759585232882 -0.5257552662229273 0.0
H H -0.6097660871992958 1.5623459585232884 -0.5143952662229273 0.0
C C -0.6130847668783674 1.4714241561664883 -0.4687499765488669 0.0
H H -0.5867147668783677 1.4843841561664883 -0.4041799765488669 0.0
C C -0.5853815338042001 1.410726140469604 -0.5035147933245259 0.0
H H -0.5531115338042001 1.3824861404696045 -0.46105479332452587 0.0
C C -0.6368366343663859 1.4027204827986128 -0.5606689190493586 0.0
C C -0.5917240742840287 1.2991409355718229 -0.6026280189310015 0.0
C C -0.782551479641705 1.3114813444691196 -0.5779376589580745 0.0
C C -0.784415464694242 1.25230462839916 -0.623068112729482 0.0
C C -0.8623279653105325 1.2189659826763357 -0.5897286304785802 0.0
H H -0.9166579653105323 1.2395159826763356 -0.5569486304785801 0.0
C C -0.8965182705882974 1.169556480135965 -0.611765227495197 0.0
H H -0.9659482705882974 1.157386480135965 -0.6214752274951968 0.0
C C -0.8005013297252855 1.1331841096476107 -0.6246537408330849 0.0
C C -0.7040065876164269 1.161636089382519 -0.6796285540521323 0.0
C C -0.6940226967067328 1.2215485235294103 -0.6301628826867057 0.0
C C -0.6025211607925401 1.2278788740152398 -0.6394616264993227 0.0
C C -0.5028735992470414 1.2131404495393294 -0.6591897674241257 0.0
H H -0.4352235992470414 1.2285104495393295 -0.6663297674241258 0.0
C C -0.521390368123478 1.141197977917987 -0.7001145751081487 0.0
H H -0.46852036812347797 1.1169579779179872 -0.7266445751081487 0.0
C C -0.6343611967147825 1.1285499137393815 -0.6620463597247098 0.0
C C -0.6120736863845272 1.053927211144955 -0.6847562216134165 0.0
C C -0.8315745308266594 1.0729563913347493 -0.6433925791013315 0.0
C C -0.763765041060806 0.9669190005309254 -0.729043593627472 0.0
C C -0.799382395037911 0.9654425365379499 -0.8326866275595043 0.0
H H -0.8088023950379111 0.9986925365379501 -0.8741966275595043 0.0
C C -0.8645512744396459 0.9058594986878463 -0.8663213659864021 0.0
H H -0.9042342744396458 0.8984694986878463 -0.9267053659864021 0.0
C C -0.8078072607387169 0.8535086250333475 -0.7948195762047859 0.0
H H -0.7941172607387169 0.8148486250333475 -0.8143095762047858 0.0
C C -0.7845574026690405 0.8763130865288608 -0.6819102745145321 0.0
C C -0.7420223355351627 0.9395700405263109 -0.6305650416621159 0.0
C C -0.6783289156549889 0.9510920791531537 -0.5553619125420405 0.0
H H -0.669058915654989 0.9897520791531538 -0.5338919125420405 0.0
C C -0.675017988948393 0.9016753883428185 -0.4710091621066966 0.0
H H -0.6353579889483929 0.9060353883428184 -0.4096491621066966 0.0
C C -0.714135956407603 0.8543340065328955 -0.5113013111243343 0.0
H H -0.7100459564076029 0.8258740065328956 -0.45842131112433426 0.0
N N -0.7319907277724714 1.5266830751740248 -0.6774113446975183 0.0
N N -0.6938831957405301 1.3381245213711992 -0.6027613420448008 0.0
N N -0.7549159538765262 1.04147844850832 -0.687045425597493 0.0
N N -0.743841447645162 0.8435714156634654 -0.6110529348038168 0.0
O O -0.5696213268120272 1.6377768546746816 -0.6268025840434478 0.0
O O -0.5637736953649672 1.7383663803335565 -0.6153332031572778 0.0
O O -0.7685923103921991 1.6389683578122256 -0.5115461075142974 0.0
O O -0.7487612246061546 1.7139676391835508 -0.5012618999526973 0.0
O O -0.7120087362703342 1.6450660610581724 -0.8171439599729201 0.0
O O -0.7601840913944689 1.7472115096145397 -0.8044938945164172 0.0
O O -0.8604115907640463 1.6261505810378707 -0.6568059699950128 0.0
O O -0.8816780638733214 1.7377583125992375 -0.6498739463027774 0.0
O O -0.8213515299238975 1.3377654609620329 -0.5437286828164114 0.0
O O -0.5197822750616732 1.3340984114856553 -0.6477985131507236 0.0
O O -0.9279200742301302 1.0440921489228563 -0.6785175834104265 0.0
O O -0.5645281787352961 1.0184568323264493 -0.7309199686521191 0.0
Zn Zn -0.7405365135622605 1.7410528134677046 -0.6569376730729303 0.0
Zn Zn -0.7314098977105471 1.6114559951590273 -0.660013297710731 0.0
