_cell_length_a 12.935
_cell_length_b 23.242012
_cell_length_c 12.93505
_cell_angle_alpha 90.0
_cell_angle_beta 90.0
_cell_angle_gamma 90.0
_symmetry_space_group_name_H-M         'P 1'
_symmetry_Int_Tables_number            1
loop_
_symmetry_equiv_pos_as_xyz
   'x, y, z'
                         
loop_
_atom_site_label
_atom_site_type_symbol
_atom_site_fract_x 
_atom_site_fract_y
_atom_site_fract_z
_atom_site_charge
C C 0.5452201937430333 1.1870808704797717 0.6353785084407683 0.0
C C 0.42288026089467734 1.1944241278692562 0.6295304710657363 0.0
C C 0.3804040070468069 1.1486678340363081 0.6363734483185172 0.0
H H 0.41375400704680687 1.1122378340363082 0.6338234483185171 0.0
C C 0.2423729574379485 1.1616843263576433 0.6353471878023375 0.0
C C 0.21422454181155423 1.220224109391438 0.6522467085678768 0.0
C C 0.2759567423804477 1.2612999154125593 0.651829254498143 0.0
H H 0.2457067423804477 1.2984699154125592 0.654289254498143 0.0
C C 0.399977186110853 1.2622665923649745 0.6325076127063429 0.0
H H 0.44522718611085293 1.2943365923649746 0.631157612706343 0.0
C C 0.18959349705119186 1.1116137310042433 0.6445754218617016 0.0
H H 0.2159334970511918 1.0737837310042433 0.6365154218617017 0.0
C C 0.10210736464939413 1.115786741764701 0.6619468195604961 0.0
H H 0.05955736464939415 1.0829467417647012 0.6726968195604961 0.0
C C 0.035566802140442444 1.1670355008424396 0.6601574448785761 0.0
C C 0.1049230032608386 1.2105389187404805 0.6505244866897618 0.0
H H 0.07747300326083861 1.2484089187404805 0.6482744866897617 0.0
C C 0.7637456450028106 1.174103590185877 0.4639810949389659 0.0
C C 0.7241610135795308 1.2026249491371932 0.8490869656620189 0.0
C C 0.7392675013399189 1.2080798633021947 0.9588700095619803 0.0
C C 0.7333652155963943 1.1507800174873617 1.026060357937834 0.0
H H 0.7348152155963942 1.1129500174873614 0.998110357937834 0.0
C C 0.7432254826315661 1.1568905086226877 1.1149033362171068 0.0
C C 0.7409310734754686 1.2116992399315152 1.159251860978346 0.0
C C 0.7517110598701536 1.2620678166063979 1.1053029014454665 0.0
H H 0.7699610598701537 1.298647816606398 1.1321529014454663 0.0
C C 0.7318982405234454 1.2500168516275252 1.020568951233232 0.0
H H 0.7046482405234455 1.2828868516275254 0.9865189512332321 0.0
C C 0.7549250430257994 1.1038887634406214 1.1800690842499197 0.0
H H 0.7669650430257995 1.0675587634406214 1.1486190842499198 0.0
C C 0.7542804485287711 1.1147282848083435 1.2867891945932648 0.0
H H 0.7525104485287709 1.0809982848083435 1.328329194593265 0.0
C C 0.7443554178642858 1.1614492831286953 1.3420735982409007 0.0
C C 0.7651906346063758 1.2072574635479085 1.2929118295810913 0.0
H H 0.7789406346063757 1.2433274635479084 1.3245718295810913 0.0
C C 0.9328882708809474 1.1779014012010107 0.6535609983042743 0.0
C C 0.7599469967218928 1.0198144305092176 0.7820333042125455 0.0
H H 0.7841869967218927 1.0497844305092179 0.8255733042125455 0.0
C C 0.783170475847582 0.9551004200232439 0.8262228505842089 0.0
H H 0.803100475847582 0.9467604200232439 0.895262850584209 0.0
C C 0.7369506473400782 0.9261642806122726 0.7555140701278894 0.0
H H 0.7597906473400783 0.8880342806122726 0.7684540701278894 0.0
C C 0.6798106868664919 0.9362999819812683 0.6500070328544327 0.0
C C 0.6873342257308315 0.9963832910464534 0.6232268796074616 0.0
C C 0.6187798679772234 1.012151099197689 0.5505785583467038 0.0
H H 0.5973298679772234 1.0507210991976892 0.5392185583467037 0.0
C C 0.6047079289304599 0.9780684229448042 0.4615025700534138 0.0
H H 0.57833792893046 0.9910284229448042 0.3969325700534137 0.0
C C 0.5990239016064675 0.9157193284645049 0.49040553880560195 0.0
H H 0.5667539016064674 0.8874793284645047 0.44794553880560195 0.0
C C 0.6502235056401552 0.9060055253915678 0.569099251225694 0.0
C C 0.5908414923218556 0.8106927771207038 0.6222931610195416 0.0
C C 0.7558521029003773 0.8079262298238153 0.5948726551714432 0.0
C C 0.7873833886292618 0.7602786092347649 0.6078342672914308 0.0
C C 0.8642855765777564 0.7338592358448215 0.6009457852225506 0.0
H H 0.9186155765777563 0.7544092358448214 0.5681657852225506 0.0
C C 0.8893968995697898 0.6732173814124407 0.606045709016536 0.0
H H 0.9588268995697897 0.6610473814124408 0.6157557090165359 0.0
C C 0.8207527635182564 0.6324575887394008 0.6461693714195722 0.0
C C 0.7199003764232343 0.6615727771051693 0.6578163590751034 0.0
C C 0.7083933604122287 0.7262546556821557 0.611817880373462 0.0
C C 0.6048349293473512 0.7344006283589937 0.6297618011655911 0.0
C C 0.5216993553126378 0.7041671066404229 0.6714301692215586 0.0
H H 0.45404935531263774 0.7195371066404229 0.6785701692215587 0.0
C C 0.5515908669336347 0.6539952200120908 0.6694524848649589 0.0
H H 0.4987208669336347 0.6297552200120907 0.695982484864959 0.0
C C 0.6058599018064715 0.6283617168677128 0.6734876086447114 0.0
C C 0.6488011413354469 0.5583025943675176 0.6597654574066383 0.0
C C 0.8059974427415758 0.5745710142450188 0.6549505166408046 0.0
C C 0.7757772103009315 0.4791894031700219 0.701846314150439 0.0
C C 0.8056016278989058 0.4772493053131647 0.8119611415691218 0.0
H H 0.8150216278989058 0.5104993053131647 0.853471141569122 0.0
C C 0.8550197799814471 0.41370515190620843 0.8654493697773454 0.0
H H 0.894702779981447 0.4063151519062084 0.9258333697773453 0.0
C C 0.8148414634297679 0.36159766830106005 0.7780859295666411 0.0
H H 0.801151463429768 0.32293766830106013 0.797575929566641 0.0
C C 0.7866370951047007 0.3867943037054507 0.6736396269195183 0.0
C C 0.7368755619668965 0.43873634956445584 0.645749895864984 0.0
C C 0.7088693587787886 0.44235726435838413 0.5331597456775867 0.0
H H 0.6995993587787888 0.4810172643583841 0.5116897456775867 0.0
C C 0.6528137809759027 0.40801577759384294 0.48393855246435574 0.0
H H 0.6131537809759026 0.412375777593843 0.42257855246435577 0.0
C C 0.7023609255711014 0.36427618115349214 0.503062736451482 0.0
H H 0.6982709255711013 0.3358161811534921 0.450182736451482 0.0
N N 0.7287319970064797 1.036303001375179 0.6892557417339573 0.0
N N 0.6617356279616109 0.8274017887553505 0.6086653054399518 0.0
N N 0.7493575986105704 0.546335665858183 0.6758848480783402 0.0
N N 0.7232849417120724 0.3309882534635476 0.6002702544216766 0.0
O O 0.5932679743711978 1.146154829379515 0.6276785157410223 0.0
O O 0.5748709957971193 1.239346316622229 0.6103111204617586 0.0
O O 0.7601600762019525 1.1253012819564823 0.5201612355614311 0.0
O O 0.7554955579960044 1.2202867240258781 0.4911549371397132 0.0
O O 0.7067017386457871 1.1448981970763321 0.8149488052929347 0.0
O O 0.7305962111592056 1.2498580208402428 0.8031090626294212 0.0
O O 0.8694496165497543 1.126651615224525 0.6810645554779932 0.0
O O 0.9094560983107032 1.237104575413911 0.650341996082492 0.0
O O 0.8317703489035199 0.8447687714797403 0.5587754289761978 0.0
O O 0.49016183785155726 0.8189829595022992 0.6465836576582163 0.0
O O 0.9174853444808532 0.5418442699916393 0.6497048381194416 0.0
O O 0.5819280947054924 0.5277254100867834 0.7237359580569869 0.0
Zn Zn 0.7529446655976525 1.2573973221055377 0.6366384864053091 0.0
Zn Zn 0.7255197355654254 1.1300558129786338 0.6725568580785144 0.0
C C -0.5402155028712217 1.6905671993716611 -0.6314543199126083 0.0
C C -0.4286111834416341 1.6989498864738546 -0.629357252322944 0.0
C C -0.3741210831340896 1.6563125280503173 -0.6247636865940986 0.0
H H -0.40747108313408964 1.6198825280503173 -0.6222136865940987 0.0
C C -0.26775058576640176 1.6499309566192721 -0.6386590276284951 0.0
C C -0.22310712246648073 1.7100287886317307 -0.6770470921746892 0.0
C C -0.278599476484507 1.7630909505644945 -0.6524520530076392 0.0
H H -0.24834947648450703 1.8002609505644944 -0.6549120530076392 0.0
C C -0.3933422220244868 1.7657196052771496 -0.6377165004269899 0.0
H H -0.43859222202448683 1.7977896052771496 -0.63636650042699 0.0
C C -0.20538887413987988 1.6148871653215364 -0.6539298883306078 0.0
H H -0.23172887413987983 1.5770571653215364 -0.645869888330608 0.0
C C -0.08123052549337303 1.6149650043335055 -0.6625067438419816 0.0
H H -0.038680525493373044 1.5821250043335056 -0.6732567438419815 0.0
C C -0.04189974677516206 1.6683081570239486 -0.6538109607419278 0.0
C C -0.10413892991129545 1.7153418947870875 -0.668811178714452 0.0
H H -0.07668892991129546 1.7532118947870874 -0.6665611787144519 0.0
C C -0.7521360860221693 1.667702000230431 -0.46187521012121696 0.0
C C -0.7259131943514064 1.6905317930855357 -0.8434845639446023 0.0
C C -0.7284544190597857 1.7053601324039045 -0.9413451200113676 0.0
C C -0.726461189414684 1.6556238579712184 -1.0329089287886006 0.0
H H -0.7279111894146839 1.6177938579712186 -1.0049589287886007 0.0
C C -0.7273644217516327 1.6556064673338082 -1.1213937213685392 0.0
C C -0.7435877676574145 1.7162074228763753 -1.162979176491847 0.0
C C -0.7397321449691402 1.7615279546192024 -1.0975456837354962 0.0
H H -0.7579821449691403 1.7981079546192025 -1.1243956837354963 0.0
C C -0.7215382360670626 1.7582773627958155 -0.9991829465400126 0.0
H H -0.6942882360670626 1.7911473627958157 -0.9651329465400125 0.0
C C -0.7598931157468994 1.6145447673107753 -1.203982489079405 0.0
H H -0.7719331157468995 1.5782147673107751 -1.172532489079405 0.0
C C -0.7627682787672982 1.6062947415368412 -1.3077478502250592 0.0
H H -0.7609982787672981 1.5725647415368411 -1.3492878502250591 0.0
C C -0.7602331970479929 1.6635185723920112 -1.339634657290041 0.0
C C -0.7601646460635422 1.7105136365140716 -1.2822447847570568 0.0
H H -0.7739146460635421 1.7465836365140714 -1.3139047847570569 0.0
C C -0.9424714451990754 1.6838295411098174 -0.6798300934570699 0.0
C C -0.7533342528879021 1.5224243379367592 -0.7683447680673409 0.0
H H -0.7775742528879022 1.5523943379367595 -0.8118847680673409 0.0
C C -0.7578142673513448 1.4668428456509142 -0.81417587756836 0.0
H H -0.7777442673513448 1.458502845650914 -0.8832158775683601 0.0
C C -0.7578263388403889 1.4146722431341563 -0.7416247967324878 0.0
H H -0.780666338840389 1.3765422431341563 -0.7545647967324878 0.0
C C -0.6946289967580948 1.434246836826227 -0.6437479829278828 0.0
C C -0.6897208602544513 1.5016792219352046 -0.6322316765580663 0.0
C C -0.6390641010144437 1.5147182349129424 -0.5363807103574604 0.0
H H -0.6176141010144437 1.5532882349129427 -0.5250207103574605 0.0
C C -0.5989943203635419 1.466450526709902 -0.45768829616303386 0.0
H H -0.5726243203635422 1.479410526709902 -0.39311829616303384 0.0
C C -0.5990952425426599 1.4113563982745287 -0.4929745492249713 0.0
H H -0.5668252425426599 1.383116398274529 -0.4505145492249713 0.0
C C -0.6559039148512157 1.4032115060380153 -0.5700912515249669 0.0
C C -0.5869995846759658 1.2962246795297325 -0.6167351605619616 0.0
C C -0.7628620996686503 1.3112687100707787 -0.5966160224978543 0.0
C C -0.7773458860010914 1.2537420548827245 -0.5995004904822601 0.0
C C -0.8659591199850568 1.230735758889309 -0.6041002531439293 0.0
H H -0.9202891199850567 1.2512857588893087 -0.5713202531439293 0.0
C C -0.8770926601865286 1.175217523871866 -0.6327419115875272 0.0
H H -0.9465226601865285 1.163047523871866 -0.6424519115875271 0.0
C C -0.8064781763870721 1.144809755667264 -0.6370137687973452 0.0
C C -0.7146553307368886 1.1617934288530805 -0.6511431184796844 0.0
C C -0.6935628146556693 1.2203473684068062 -0.6363005934522986 0.0
C C -0.5999066230050625 1.234587688651427 -0.6306563302568802 0.0
C C -0.5145653660374839 1.1998169443330529 -0.679933535570645 0.0
H H -0.44691536603748383 1.215186944333053 -0.687073535570645 0.0
C C -0.5491337726653398 1.1510707471951387 -0.6695216997455254 0.0
H H -0.4962637726653398 1.1268307471951386 -0.6960516997455255 0.0
C C -0.6138037075819789 1.1378504739699997 -0.6548922267187871 0.0
C C -0.6408737959333616 1.0578069483685895 -0.667587261660915 0.0
C C -0.8021909894596996 1.0753729009857895 -0.6371453717942561 0.0
C C -0.756471538766487 0.9740784564363054 -0.7189342939080295 0.0
C C -0.8152827716251264 0.963359341731939 -0.8170488141085326 0.0
H H -0.8247027716251264 0.9966093417319393 -0.8585588141085327 0.0
C C -0.8607660430532753 0.8996189122584124 -0.8816324728443743 0.0
H H -0.9004490430532752 0.8922289122584124 -0.9420164728443743 0.0
C C -0.7920352546326992 0.852052943194472 -0.7719740479100112 0.0
H H -0.7783452546326991 0.8133929431944721 -0.7914640479100111 0.0
C C -0.7750563867916692 0.8840696389298265 -0.6624652155712907 0.0
C C -0.7401847974681645 0.9408893692062632 -0.6459507031792362 0.0
C C -0.6912291261454011 0.9420978283022184 -0.5301620700645474 0.0
H H -0.6819591261454012 0.9807578283022185 -0.5086920700645473 0.0
C C -0.6745944895657491 0.9025598633498164 -0.4708829489909536 0.0
H H -0.634934489565749 0.9069198633498163 -0.40952294899095365 0.0
C C -0.7038215145199912 0.8625905722323135 -0.5060107018327057 0.0
H H -0.699731514519991 0.8341305722323136 -0.4531307018327056 0.0
N N -0.7268680851794617 1.5247800333511645 -0.6779160589278362 0.0
N N -0.6606109313461418 1.3297034723417436 -0.5985677518831148 0.0
N N -0.7348482006352164 1.0427696183506134 -0.6767983538415555 0.0
N N -0.7432919823481462 0.8330740980131051 -0.6182359292160822 0.0
O O -0.5803772694519729 1.646469517190467 -0.6275556623158831 0.0
O O -0.5846971510759245 1.7402543139200686 -0.6125909276614943 0.0
O O -0.7448039123200105 1.634209972079975 -0.510644263397366 0.0
O O -0.7441846468486529 1.722281358270827 -0.49196839400415043 0.0
O O -0.7063468312011874 1.6460614363455253 -0.8147148860808601 0.0
O O -0.7491018115179319 1.7417531144083185 -0.8050496739393213 0.0
O O -0.8847698472106491 1.6343100388589356 -0.6822594467302663 0.0
O O -0.905316256575838 1.7296880837438986 -0.6533973705151493 0.0
O O -0.851894023183809 1.338703607703522 -0.549274703008632 0.0
O O -0.4898007396200396 1.3313519602629653 -0.6395808977577389 0.0
O O -0.9094469627204295 1.056604322779381 -0.6546510430204927 0.0
O O -0.5659165727649383 1.0276329977386431 -0.7049403783192935 0.0
Zn Zn -0.7403582038942206 1.7570747684850112 -0.6412628505141243 0.0
Zn Zn -0.7202256616705242 1.6282041290279203 -0.6481516875908675 0.0
