_cell_length_a 12.935
_cell_length_b 23.242012
_cell_length_c 12.93505
_cell_angle_alpha 90.0
_cell_angle_beta 90.0
_cell_angle_gamma 90.0
_symmetry_space_group_name_H-M         'P 1'
_symmetry_Int_Tables_number            1
loop_
_symmetry_equiv_pos_as_xyz
   'x, y, z'
                         
loop_
_atom_site_label
_atom_site_type_symbol
_atom_site_fract_x 
_atom_site_fract_y
_atom_site_fract_z
_atom_site_charge
C C 0.5345581730350063 1.1916230025043415 0.6244720388628108 0.0
C C 0.424934431047707 1.1977996510266171 0.6536847325221814 0.0
C C 0.3911100784878942 1.1453165860045282 0.6443869937669797 0.0
H H 0.42446007848789424 1.1088865860045283 0.6418369937669798 0.0
C C 0.2693897674534943 1.1503648647908544 0.6315651850227875 0.0
C C 0.2031932316529962 1.2201294679913481 0.6622093529223124 0.0
C C 0.26455912647034324 1.2698312033158474 0.6629962671969183 0.0
H H 0.2343091264703433 1.3070012033158473 0.6654562671969183 0.0
C C 0.371227275656501 1.2549407791719756 0.6428020839009324 0.0
H H 0.4164772756565009 1.2870107791719756 0.6414520839009323 0.0
C C 0.1838797659939759 1.1110734710172856 0.6271303074546043 0.0
H H 0.21021976599397582 1.0732434710172856 0.6190703074546045 0.0
C C 0.07749830944638468 1.1167399790278474 0.6742751096417882 0.0
H H 0.034948309446384704 1.0838999790278474 0.6850251096417882 0.0
C C 0.05207191317464195 1.172541306921439 0.6455391832929864 0.0
C C 0.09548627341619205 1.208189218764824 0.661353567780223 0.0
H H 0.06803627341619206 1.246059218764824 0.6591035677802229 0.0
C C 0.7538416672524976 1.1739294074156594 0.4750951906897235 0.0
C C 0.7338505733593127 1.195499707537707 0.8399738246415259 0.0
C C 0.7205755437154192 1.2088297701215596 0.949821978465924 0.0
C C 0.7554267715254895 1.154975366731135 1.019989151114067 0.0
H H 0.7568767715254894 1.1171453667311348 0.9920391511140672 0.0
C C 0.7472540878886016 1.1450754034134152 1.1130385619234262 0.0
C C 0.7422221682109553 1.2080194058901548 1.1648537690117888 0.0
C C 0.7416266211554158 1.2539847106014645 1.1181908637324318 0.0
H H 0.7598766211554159 1.2905647106014646 1.1450408637324319 0.0
C C 0.7164889487142246 1.2495340738599685 1.0067218972381313 0.0
H H 0.6892389487142246 1.2824040738599687 0.9726718972381314 0.0
C C 0.7454264373866688 1.1056021025843121 1.1898275891551369 0.0
H H 0.7574664373866687 1.0692721025843122 1.1583775891551369 0.0
C C 0.763676024328263 1.1132489535144023 1.2840872873520566 0.0
H H 0.7619060243282628 1.0795189535144023 1.3256272873520567 0.0
C C 0.7627029171618301 1.1630920966203098 1.3547766594704065 0.0
C C 0.7678236405911064 1.2158762702842736 1.2893155832746663 0.0
H H 0.7815736405911063 1.2519462702842736 1.3209755832746661 0.0
C C 0.9404752543452697 1.1689847037411651 0.6489626497730676 0.0
C C 0.7482218219808865 1.0130754872267427 0.7825032660644965 0.0
H H 0.7724618219808865 1.0430454872267427 0.8260432660644965 0.0
C C 0.7548178593499268 0.9536434723885719 0.8234327034272442 0.0
H H 0.7747478593499268 0.9453034723885718 0.8924727034272442 0.0
C C 0.7643147969113292 0.919333664505633 0.7538661314212367 0.0
H H 0.7871547969113294 0.881203664505633 0.7668061314212367 0.0
C C 0.6853796822132691 0.9353294409293136 0.6474658117071146 0.0
C C 0.6936957930617497 1.0061167070309405 0.6217049567859633 0.0
C C 0.6161754946814741 1.0176295607488546 0.5351817061074601 0.0
H H 0.5947254946814742 1.0561995607488548 0.52382170610746 0.0
C C 0.5850761768723063 0.9765887385425704 0.4874078067197845 0.0
H H 0.5587061768723065 0.9895487385425704 0.4228378067197845 0.0
C C 0.6032731041205563 0.9188065267426087 0.503972005008755 0.0
H H 0.5710031041205562 0.8905665267426085 0.46151200500875506 0.0
C C 0.6582017871954599 0.894275819610864 0.583343469717843 0.0
C C 0.5722745922689164 0.8119848573165297 0.6399798518098007 0.0
C C 0.7843839767801453 0.8211404877102562 0.5794984195843371 0.0
C C 0.7820156890735069 0.746108366992728 0.6145223368279593 0.0
C C 0.8878221224076674 0.721190477082168 0.5719038359640092 0.0
H H 0.9421521224076673 0.741740477082168 0.5391238359640091 0.0
C C 0.8879546130874771 0.6654060464620902 0.6188075405439787 0.0
H H 0.9573846130874771 0.6532360464620902 0.6285175405439786 0.0
C C 0.817978915992808 0.6375473663971666 0.6461556136274054 0.0
C C 0.7192700746790518 0.6639572288868871 0.6600679830200182 0.0
C C 0.7076683890270695 0.7317122484046898 0.6166714702631153 0.0
C C 0.5964124442380605 0.7361768520435892 0.6224173972624453 0.0
C C 0.5150705329292081 0.7084085734841103 0.658186694293106 0.0
H H 0.44742053292920814 0.7237785734841102 0.665326694293106 0.0
C C 0.5227239045768793 0.6506725276648874 0.669789972418256 0.0
H H 0.4698539045768793 0.6264325276648873 0.6963199724182562 0.0
C C 0.6080618219202086 0.623004390528669 0.6791355117790927 0.0
C C 0.6177367963836848 0.551733892357875 0.6740216087475378 0.0
C C 0.8299699477065646 0.5744457006720531 0.653106402963385 0.0
C C 0.7631858876567443 0.47019227198030006 0.6976969825753399 0.0
C C 0.8294886070179175 0.47424612798431365 0.8362985122011581 0.0
H H 0.8389086070179175 0.5074961279843138 0.8778085122011582 0.0
C C 0.8518660609137713 0.41813181426492313 0.8859952996263389 0.0
H H 0.8915490609137712 0.4107418142649231 0.9463792996263389 0.0
C C 0.7885487503489705 0.36423182991568787 0.7740106809971973 0.0
H H 0.7748587503489706 0.3255718299156879 0.7935006809971972 0.0
C C 0.7728099633407706 0.390250921993395 0.6715948579440757 0.0
C C 0.7602336170557619 0.43687466388245616 0.6295044513661926 0.0
C C 0.6933646869934711 0.4477667622095603 0.5367862486299103 0.0
H H 0.6840946869934712 0.48642676220956027 0.5153162486299103 0.0
C C 0.6800579610655373 0.4057305482624005 0.4776535946054785 0.0
H H 0.6403979610655371 0.41009054826240054 0.41629359460547855 0.0
C C 0.7131425682693107 0.35889611648046693 0.510400620777158 0.0
H H 0.7090525682693105 0.33043611648046695 0.457520620777158 0.0
N N 0.7165701516414943 1.0283906539358658 0.6935495671720487 0.0
N N 0.6764476697901451 0.8349537317136845 0.6043327954384282 0.0
N N 0.7328774953798187 0.5457347784818173 0.6714713534850363 0.0
N N 0.7370038012162347 0.325706894522116 0.6049382872810202 0.0
O O 0.5673091802989726 1.1385976196242849 0.6362302759887882 0.0
O O 0.5832168632634045 1.2415749101482711 0.6347177651726369 0.0
O O 0.7717496862237014 1.1353388161646631 0.5040038965735348 0.0
O O 0.748410338395539 1.216875444981339 0.4986094468127631 0.0
O O 0.7066614929214351 1.1404956106992954 0.808132104178458 0.0
O O 0.7385434282696876 1.2461506415253871 0.8010753047576313 0.0
O O 0.8747741100309967 1.1375607051151237 0.6715623576990145 0.0
O O 0.9134265493661788 1.2356234917262183 0.6665190574691209 0.0
O O 0.8337034763326143 0.8394189306633377 0.5399688717801098 0.0
O O 0.5070260788756431 0.8311517537705063 0.6450565962462352 0.0
O O 0.9318343953697054 0.546256033265385 0.6632830839220435 0.0
O O 0.5755848366651529 0.5236448304663602 0.7149489282422045 0.0
Zn Zn 0.7652906136066332 1.2601999938611548 0.633558522943337 0.0
Zn Zn 0.7216279392844822 1.1267590379731685 0.6445202099000975 0.0
C C -0.5509666207276909 1.6949402526575552 -0.6271262202216594 0.0
C C -0.42121889150740993 1.7061353206808756 -0.6276584070676083 0.0
C C -0.3761662587447391 1.6548336248289572 -0.6273814460765628 0.0
H H -0.4095162587447391 1.618403624828957 -0.6248314460765628 0.0
C C -0.25613735134891213 1.6482101262783453 -0.6567123301880976 0.0
C C -0.2138202199155994 1.7091176698116333 -0.6525808594115095 0.0
C C -0.2670057554991716 1.7734760635203572 -0.6544824651289702 0.0
H H -0.23675575549917163 1.8106460635203572 -0.6569424651289703 0.0
C C -0.37628029140269215 1.758100575497559 -0.6364020466028564 0.0
H H -0.42153029140269216 1.790170575497559 -0.6350520466028564 0.0
C C -0.19004082398333336 1.6039182777888896 -0.647264151177039 0.0
H H -0.2163808239833333 1.5660882777888896 -0.6392041511770391 0.0
C C -0.09347892176883045 1.618077677966848 -0.6415901775201053 0.0
H H -0.05092892176883046 1.585237677966848 -0.6523401775201053 0.0
C C -0.03170733936323849 1.6683887652336713 -0.6534597484684064 0.0
C C -0.10322286615144494 1.7174402285070698 -0.6474920940878749 0.0
H H -0.07577286615144495 1.7553102285070696 -0.6452420940878747 0.0
C C -0.7513191621053301 1.663790594404775 -0.45901769444156754 0.0
C C -0.7104720587531111 1.7019541306833 -0.8361187719239768 0.0
C C -0.7205959581795021 1.7050412727339275 -0.9289177531091253 0.0
C C -0.7240056031996288 1.6449871763568007 -1.0273198815108535 0.0
H H -0.7254556031996288 1.6071571763568007 -0.9993698815108535 0.0
C C -0.7354000135241507 1.6633230485553743 -1.1271515613451946 0.0
C C -0.7347104315873506 1.7151943542315247 -1.1743125577906035 0.0
C C -0.7437310901722356 1.76694330377396 -1.0940315518400823 0.0
H H -0.7619810901722357 1.80352330377396 -1.1208815518400823 0.0
C C -0.7128148553801212 1.7506031189397329 -1.0028262132520733 0.0
H H -0.6855648553801212 1.783473118939733 -0.9687762132520733 0.0
C C -0.7436898751839903 1.5994120752088032 -1.1917085764315765 0.0
H H -0.7557298751839903 1.563082075208803 -1.1602585764315763 0.0
C C -0.7338656128775358 1.6034823177799389 -1.3120158057049909 0.0
H H -0.7320956128775357 1.569752317779939 -1.353555805704991 0.0
C C -0.7581725234293462 1.6599463487839272 -1.3563564753223134 0.0
C C -0.7445438012853322 1.7090797319249968 -1.286626524107476 0.0
H H -0.7582938012853321 1.745149731924997 -1.3182865241074757 0.0
C C -0.9385180414709257 1.667537796113039 -0.6614471713451154 0.0
C C -0.7591387852881765 1.5185148560540778 -0.775009797660859 0.0
H H -0.7833787852881764 1.548484856054078 -0.8185497976608589 0.0
C C -0.7739742822355599 1.4715703116433987 -0.8028670510654085 0.0
H H -0.7939042822355599 1.4632303116433985 -0.8719070510654084 0.0
C C -0.749863650199176 1.420611101865875 -0.7320862362610613 0.0
H H -0.7727036501991762 1.3824811018658751 -0.7450262362610613 0.0
C C -0.7052071042911783 1.4295369643137426 -0.6489097595539502 0.0
C C -0.7097708802741782 1.5058653188272224 -0.6256563890132494 0.0
C C -0.620404076359163 1.5200385585705392 -0.5468198552235102 0.0
H H -0.598954076359163 1.5586085585705394 -0.5354598552235101 0.0
C C -0.6015520594329682 1.4773808646595652 -0.48069171533897137 0.0
H H -0.5751820594329684 1.490340864659565 -0.4161217153389713 0.0
C C -0.5922139127378363 1.4129700979823667 -0.508490457595601 0.0
H H -0.5599439127378363 1.3847300979823671 -0.46603045759560097 0.0
C C -0.6380263657031259 1.4027391723349458 -0.5776038571936358 0.0
C C -0.58265448223653 1.3110050228227834 -0.6406953288018796 0.0
C C -0.7676179882895335 1.3238715124532565 -0.5782480916209434 0.0
C C -0.7661934620212307 1.2567701815445347 -0.603890208376056 0.0
C C -0.8843246816733122 1.217614096610997 -0.6037220896630248 0.0
H H -0.9386546816733121 1.2381640966109968 -0.5709420896630247 0.0
C C -0.8906675644649331 1.1846777575092717 -0.6219238504192393 0.0
H H -0.9600975644649331 1.1725077575092717 -0.6316338504192391 0.0
C C -0.824109684291345 1.1473145170125112 -0.6310400822450447 0.0
C C -0.7086443595813908 1.1666241466648146 -0.6690281622652304 0.0
C C -0.6947440963931935 1.2123851590528347 -0.620250172780948 0.0
C C -0.6144665864706084 1.2399413865353845 -0.6396740441189018 0.0
C C -0.5209689547088678 1.1974654268848066 -0.6676943018366914 0.0
H H -0.4533189547088678 1.2128354268848067 -0.6748343018366915 0.0
C C -0.5301198213953315 1.1575459377669972 -0.6830589480868919 0.0
H H -0.47724982139533145 1.1333059377669972 -0.7095889480868921 0.0
C C -0.6358114319448983 1.136890188301328 -0.6662517231205737 0.0
C C -0.6194546085047693 1.0644289986688134 -0.657375682693889 0.0
C C -0.7954740630960617 1.0697294629211775 -0.6390459086124956 0.0
C C -0.7540794328315238 0.9749183385620179 -0.695027838499641 0.0
C C -0.8307451038869331 0.9621813261817995 -0.8310732545007959 0.0
H H -0.8401651038869331 0.9954313261817997 -0.872583254500796 0.0
C C -0.8687198827351484 0.9073757403547204 -0.8691411814727503 0.0
H H -0.9084028827351484 0.8999857403547203 -0.9295251814727502 0.0
C C -0.8149312938720998 0.8552169957533707 -0.7913456592639163 0.0
H H -0.8012412938720999 0.8165569957533708 -0.8108356592639162 0.0
C C -0.7814461831412527 0.886293957122145 -0.6705411217663924 0.0
C C -0.7280175444288736 0.9300649949915892 -0.6343360356202188 0.0
C C -0.684161144814958 0.9523455524085646 -0.5377515749098956 0.0
H H -0.6748911448149582 0.9910055524085646 -0.5162815749098956 0.0
C C -0.6580144610060265 0.9062758765411546 -0.4798887013703684 0.0
H H -0.6183544610060263 0.9106358765411545 -0.4185287013703684 0.0
C C -0.7152966618889381 0.8520940055396018 -0.5141127438481906 0.0
H H -0.7112066618889381 0.8236340055396018 -0.4612327438481906 0.0
N N -0.7296347591708288 1.5304322163928306 -0.6997258255948798 0.0
N N -0.6822430558621901 1.3364679763062897 -0.6127798870710429 0.0
N N -0.7518442482198853 1.0350357137260897 -0.6812329631007672 0.0
N N -0.7480686170699287 0.8360574215502684 -0.5961191452540376 0.0
O O -0.5935284636653638 1.636580894945431 -0.650381073921109 0.0
O O -0.5763053243264881 1.7385402914846269 -0.6274554303320037 0.0
O O -0.7454188277333081 1.6283537837916255 -0.4954779872095351 0.0
O O -0.745260727705266 1.713152236103561 -0.5075793622600265 0.0
O O -0.7122263515611941 1.6485811146157667 -0.8123549539896807 0.0
O O -0.7534831241012366 1.7385608840759674 -0.7913205333124559 0.0
O O -0.8764602270120697 1.6327596435326597 -0.6634448638067545 0.0
O O -0.9092226347607074 1.7233151382604226 -0.6655325077892618 0.0
O O -0.8347935836737168 1.352585145024392 -0.569205471490955 0.0
O O -0.4963743742210838 1.321173064638869 -0.6321845470859409 0.0
O O -0.9307145641925708 1.0551660580623337 -0.6671949237403347 0.0
O O -0.5667604347222907 1.031691629425663 -0.7306030456455799 0.0
Zn Zn -0.7557423965344829 1.7459077285880937 -0.6341775959986394 0.0
Zn Zn -0.7379230948163378 1.6215379865933635 -0.6701534347267234 0.0
