_cell_length_a 12.935
_cell_length_b 23.242012
_cell_length_c 12.93505
_cell_angle_alpha 90.0
_cell_angle_beta 90.0
_cell_angle_gamma 90.0
_symmetry_space_group_name_H-M         'P 1'
_symmetry_Int_Tables_number            1
loop_
_symmetry_equiv_pos_as_xyz
   'x, y, z'
                         
loop_
_atom_site_label
_atom_site_type_symbol
_atom_site_fract_x 
_atom_site_fract_y
_atom_site_fract_z
_atom_site_charge
C C 0.5424522613290841 1.1818529272191145 0.6277930900653842 0.0
C C 0.42904725079104233 1.1925788346154764 0.6468452396631018 0.0
C C 0.38234781004904356 1.1482350246930801 0.6418525412324626 0.0
H H 0.4156978100490436 1.1118050246930802 0.6393025412324626 0.0
C C 0.24637234824610169 1.1563356204804935 0.6467806023294891 0.0
C C 0.20943532875778792 1.209890691324269 0.6543350433091698 0.0
C C 0.2982574433947428 1.262495153001777 0.6652304518589774 0.0
H H 0.2680074433947428 1.2996651530017769 0.6676904518589775 0.0
C C 0.3865376410451379 1.2576084401633438 0.635515188432988 0.0
H H 0.4317876410451378 1.2896784401633439 0.6341651884329881 0.0
C C 0.18377829537071735 1.1141969823766813 0.6452442342656519 0.0
H H 0.21011829537071727 1.0763669823766813 0.6371842342656521 0.0
C C 0.10536104138257203 1.1177040496131392 0.6566526918178377 0.0
H H 0.06281104138257206 1.0848640496131392 0.6674026918178376 0.0
C C 0.03264402973021166 1.1806295753218103 0.6562612679193243 0.0
C C 0.12115293040760818 1.222104308808596 0.6676712092864275 0.0
H H 0.09370293040760819 1.259974308808596 0.6654212092864275 0.0
C C 0.7561248491890927 1.1825930538706135 0.4661443488779837 0.0
C C 0.7150131088681495 1.2032705405259734 0.8370805087578027 0.0
C C 0.7294227519317666 1.203484703429181 0.9551100987057843 0.0
C C 0.7509926032769398 1.1531315097640447 1.0281314010741933 0.0
H H 0.7524426032769397 1.1153015097640446 1.0001814010741934 0.0
C C 0.727926158033556 1.1574788865235792 1.1329341215237632 0.0
C C 0.7289299744021112 1.2036591411646662 1.1661647525856929 0.0
C C 0.7605128960523974 1.268991375202699 1.0997850541112393 0.0
H H 0.7787628960523975 1.3055713752026992 1.1266350541112393 0.0
C C 0.7376223459415984 1.2476767945195633 1.0101450405595243 0.0
H H 0.7103723459415985 1.2805467945195634 0.9760950405595241 0.0
C C 0.7478714266457204 1.1150717708930786 1.1858664841963704 0.0
H H 0.7599114266457204 1.0787417708930787 1.1544164841963702 0.0
C C 0.7477384600006263 1.1055243614956243 1.306463530888349 0.0
H H 0.7459684600006262 1.0717943614956242 1.3480035308883491 0.0
C C 0.7644897550680205 1.1713531889469728 1.3459195795236365 0.0
C C 0.7547656327513285 1.2233331542927854 1.2922178886425746 0.0
H H 0.7685156327513284 1.2594031542927855 1.3238778886425746 0.0
C C 0.9241875148203799 1.176296436314797 0.6503529513034598 0.0
C C 0.7721227779524813 1.010837827999647 0.7700633078949064 0.0
H H 0.7963627779524813 1.040807827999647 0.8136033078949063 0.0
C C 0.7806537488774027 0.953745226741361 0.8197431820010243 0.0
H H 0.8005837488774027 0.9454052267413608 0.8887831820010242 0.0
C C 0.7467368545649121 0.9130927125516477 0.7473659094162665 0.0
H H 0.7695768545649123 0.8749627125516477 0.7603059094162664 0.0
C C 0.6898424042904122 0.9363925355404421 0.6555993322716944 0.0
C C 0.7038112973146673 0.9968530912498392 0.6272594053618757 0.0
C C 0.6222504724756287 1.0201555136365341 0.5302917871039154 0.0
H H 0.6008004724756287 1.058725513636534 0.5189317871039154 0.0
C C 0.5970126591298702 0.9732357206331722 0.4759585159954439 0.0
H H 0.5706426591298703 0.9861957206331722 0.41138851599544385 0.0
C C 0.5924804836944847 0.9072532480775254 0.507428530890389 0.0
H H 0.5602104836944847 0.8790132480775252 0.464968530890389 0.0
C C 0.6553783215162035 0.9070049397150254 0.5725892522832 0.0
C C 0.5873867004607548 0.8039915148246857 0.6229860538344134 0.0
C C 0.7798710236429843 0.8138798498389093 0.5783348315918325 0.0
C C 0.7766783379718641 0.7509491068679487 0.6136255578631777 0.0
C C 0.8767696103426896 0.7335979333989232 0.5841895568082136 0.0
H H 0.9310996103426895 0.754147933398923 0.5514095568082136 0.0
C C 0.8827921768265757 0.66745349320409 0.6187057760418606 0.0
H H 0.9522221768265757 0.65528349320409 0.6284157760418605 0.0
C C 0.8070419449929755 0.6450917433279368 0.6242605134068633 0.0
C C 0.7097075028854416 0.668293531606622 0.6434007715180724 0.0
C C 0.6978710409332849 0.7208920540581322 0.6324329962600223 0.0
C C 0.5963368063288602 0.7488962692034291 0.6299630450667868 0.0
C C 0.5290149147607968 0.7044054931206579 0.6720771277031976 0.0
H H 0.4613649147607968 0.7197754931206579 0.6792171277031976 0.0
C C 0.5316573574874889 0.6425387484147125 0.692678252859708 0.0
H H 0.4787873574874889 0.6182987484147124 0.7192082528597081 0.0
C C 0.6304502399043381 0.6318720526105897 0.6744276256349527 0.0
C C 0.6422156838354433 0.5656710567892341 0.6797643147374399 0.0
C C 0.8074603580158515 0.5645796756436663 0.6591470738688409 0.0
C C 0.7696255464386615 0.48501231069548684 0.7044845710649269 0.0
C C 0.816603242150822 0.4730925623706129 0.8221771975363511 0.0
H H 0.8260232421508219 0.506342562370613 0.8636871975363511 0.0
C C 0.8566496125117253 0.40654462090299787 0.8830829797301405 0.0
H H 0.8963326125117252 0.39915462090299786 0.9434669797301404 0.0
C C 0.8146428216459243 0.35968276766443047 0.7717493565702134 0.0
H H 0.8009528216459243 0.3210227676644305 0.7912393565702133 0.0
C C 0.7711845223477395 0.38396997708556024 0.6572589306846265 0.0
C C 0.7462710413490105 0.43556995899337353 0.6559532772469723 0.0
C C 0.68948126085767 0.44457484576549616 0.5529884167813466 0.0
H H 0.68021126085767 0.48323484576549613 0.5315184167813465 0.0
C C 0.6557239060122159 0.411426343271271 0.48319484323037887 0.0
H H 0.6160639060122156 0.415786343271271 0.4218348432303789 0.0
C C 0.6863862010251826 0.3557911262715272 0.5267445845455845 0.0
H H 0.6822962010251825 0.3273311262715272 0.4738645845455845 0.0
N N 0.7106472701357242 1.0390428351070415 0.681174959273315 0.0
N N 0.6683845852827843 0.836446112745424 0.6044828451926977 0.0
N N 0.7467205380380083 0.5362994647898877 0.6641220423039056 0.0
N N 0.7458109790192105 0.3315773569952078 0.5895920401646685 0.0
O O 0.5775426622450616 1.1436285159028599 0.6252574269996264 0.0
O O 0.5711346989420835 1.2438864349464938 0.6041253939224671 0.0
O O 0.7573500169489408 1.1333224327242684 0.5157339116771225 0.0
O O 0.7544634580325319 1.2281865950971973 0.5059512967175156 0.0
O O 0.7143556366062574 1.1427279743220773 0.8041236750637925 0.0
O O 0.7363536963542889 1.246667592241821 0.7903783214244274 0.0
O O 0.8776771886656889 1.1296528806914572 0.6670101971911431 0.0
O O 0.9032466736450049 1.2354254464622536 0.6548768673554524 0.0
O O 0.8264057129750784 0.8438582529738187 0.5525385258579903 0.0
O O 0.4929541181899614 0.8292565466393512 0.6355254576049723 0.0
O O 0.9179406443602872 0.5450683799875415 0.6644907325946778 0.0
O O 0.5595142175938765 0.5367544903265641 0.7201229552390055 0.0
Zn Zn 0.7609859681254025 1.2522593370826407 0.6563032748132005 0.0
Zn Zn 0.7148074013444486 1.129603323032735 0.6709318205952256 0.0
C C -0.5373122144918071 1.687688895003205 -0.6422729754044425 0.0
C C -0.44191210740803144 1.7023543585917644 -0.6403730461058693 0.0
C C -0.37721157083130513 1.645515249198502 -0.6294127331639275 0.0
H H -0.4105615708313052 1.609085249198502 -0.6268627331639275 0.0
C C -0.2397331612225731 1.6613519387637896 -0.6340471928231084 0.0
C C -0.22496318356673692 1.7083199221951684 -0.6639115694994826 0.0
C C -0.28527159405558533 1.772550572561674 -0.6601056219568714 0.0
H H -0.25502159405558533 1.8097205725616738 -0.6625656219568714 0.0
C C -0.3888004660884902 1.7654218111257554 -0.6559826517356911 0.0
H H -0.43405046608849024 1.7974918111257554 -0.6546326517356912 0.0
C C -0.2036089789071858 1.6057443671489167 -0.6318508541844479 0.0
H H -0.22994897890718577 1.5679143671489169 -0.623790854184448 0.0
C C -0.08412253439876 1.6227541103252754 -0.6441606695066655 0.0
H H -0.04157253439876001 1.5899141103252754 -0.6549106695066654 0.0
C C -0.02908541870341782 1.6781231720497214 -0.6530036686746594 0.0
C C -0.10588254968734376 1.7238253194797006 -0.6663909053747809 0.0
H H -0.07843254968734377 1.7616953194797005 -0.6641409053747808 0.0
C C -0.772325612098117 1.6694189940594808 -0.46613899991998375 0.0
C C -0.7218129179983698 1.691323011936944 -0.8639188989670777 0.0
C C -0.7182449768781959 1.7050151979063188 -0.9465842033596789 0.0
C C -0.7347321053430753 1.652325504406075 -1.0276145877913454 0.0
H H -0.7361821053430753 1.614495504406075 -0.9996645877913455 0.0
C C -0.7300124112192558 1.6473450016871392 -1.107801319551654 0.0
C C -0.7304022126754898 1.714541880617246 -1.1667391079866103 0.0
C C -0.7360078887104724 1.7595209938643404 -1.1031569532121421 0.0
H H -0.7542578887104725 1.7961009938643404 -1.1300069532121422 0.0
C C -0.7196024845778038 1.7594781659636103 -0.9976342376348111 0.0
H H -0.692352484577804 1.7923481659636105 -0.963584237634811 0.0
C C -0.7493031594667147 1.6071352842133826 -1.2001600997203576 0.0
H H -0.7613431594667146 1.5708052842133824 -1.1687100997203577 0.0
C C -0.7547831539733421 1.6027917730424175 -1.3095597856858134 0.0
H H -0.753013153973342 1.5690617730424177 -1.3510997856858136 0.0
C C -0.7590917485081656 1.6706432906868987 -1.329394634304497 0.0
C C -0.7478630262917229 1.7079201631549736 -1.2929992434711128 0.0
H H -0.7616130262917228 1.7439901631549735 -1.3246592434711129 0.0
C C -0.915278301782717 1.6764292169329535 -0.6570340210722667 0.0
C C -0.749646098567912 1.52201691687908 -0.7774360654496817 0.0
H H -0.7738860985679119 1.55198691687908 -0.8209760654496817 0.0
C C -0.7758830921932052 1.4688543476768885 -0.8011352453279437 0.0
H H -0.7958130921932052 1.4605143476768883 -0.8701752453279438 0.0
C C -0.7377249922039346 1.4190551976834263 -0.7527491456311867 0.0
H H -0.7605649922039348 1.3809251976834265 -0.7656891456311866 0.0
C C -0.693003615069994 1.4405192997043479 -0.6432914661281792 0.0
C C -0.7001106828862658 1.5076434820358207 -0.6269063280571545 0.0
C C -0.6263187269574602 1.518243107201185 -0.521756397997881 0.0
H H -0.6048687269574603 1.5568131072011853 -0.5103963979978811 0.0
C C -0.595719874242556 1.4722978448796247 -0.4641062325448431 0.0
H H -0.5693498742425561 1.4852578448796248 -0.3995362325448431 0.0
C C -0.606500907181733 1.4104889934184073 -0.5042334623082712 0.0
H H -0.574230907181733 1.3822489934184077 -0.46177346230827115 0.0
C C -0.6610929009060975 1.4073916941723346 -0.5874584954793461 0.0
C C -0.5838017717798885 1.3008128675796578 -0.6351301656089046 0.0
C C -0.7784948602932917 1.312438050946466 -0.5910959273080948 0.0
C C -0.7683582645875242 1.2545091642567197 -0.6062830399093811 0.0
C C -0.8751198878407654 1.2305510362618175 -0.5847505366364821 0.0
H H -0.9294498878407653 1.2511010362618171 -0.5519705366364821 0.0
C C -0.8767343410030776 1.1842349216995367 -0.6162452493114127 0.0
H H -0.9461643410030776 1.1720649216995367 -0.6259552493114127 0.0
C C -0.8153720917724521 1.1380517181237506 -0.6445862942416056 0.0
C C -0.7290995161540862 1.16705127049044 -0.6648271364035392 0.0
C C -0.6913254397876242 1.2241273749696546 -0.6289740100240012 0.0
C C -0.6040049050504418 1.246830486750821 -0.6519582120290156 0.0
C C -0.5211789378370317 1.210851004607711 -0.6641115349071196 0.0
H H -0.45352893783703163 1.226221004607711 -0.6712515349071198 0.0
C C -0.5482922307136959 1.1434754466109935 -0.679602061732235 0.0
H H -0.49542223071369584 1.1192354466109935 -0.7061320617322352 0.0
C C -0.6068380515022141 1.1369371578763054 -0.6497691192819773 0.0
C C -0.6238184309926397 1.063104815373214 -0.6568833897208161 0.0
C C -0.8108914906124143 1.0768856765758028 -0.65199393465127 0.0
C C -0.7739877791147399 0.9797810043635052 -0.7149383272722979 0.0
C C -0.825202250551635 0.9717574535337912 -0.807258534991206 0.0
H H -0.834622250551635 1.0050074535337914 -0.8487685349912061 0.0
C C -0.8665486317270708 0.9050805790402502 -0.8572187205048802 0.0
H H -0.9062316317270707 0.8976905790402502 -0.9176027205048802 0.0
C C -0.811960384642589 0.8628063470040407 -0.7855363820472583 0.0
H H -0.7982703846425889 0.8241463470040408 -0.8050263820472582 0.0
C C -0.7639082811596631 0.886458761731333 -0.6719327429267373 0.0
C C -0.7301581228850716 0.9313993458420712 -0.6399460114776432 0.0
C C -0.7038911990823257 0.9429593531943381 -0.5339238875596959 0.0
H H -0.6946211990823257 0.9816193531943381 -0.5124538875596959 0.0
C C -0.6791647500503526 0.8972959151458019 -0.4959023299709921 0.0
H H -0.6395047500503526 0.9016559151458019 -0.4345423299709921 0.0
C C -0.7078213815141083 0.8623561888120896 -0.5154782214177942 0.0
H H -0.7037313815141082 0.8338961888120897 -0.4625982214177942 0.0
N N -0.7247705011816581 1.5300992142688892 -0.6891922419618294 0.0
N N -0.6627846175273123 1.333339969970966 -0.5916391393270751 0.0
N N -0.7583099351008004 1.0473976569473098 -0.68426055036037 0.0
N N -0.7248148420658713 0.8358857881912143 -0.6082686857934537 0.0
O O -0.5843370418049776 1.6406992164593637 -0.6468134747842703 0.0
O O -0.5810486531862037 1.7325584593066155 -0.6211961990121835 0.0
O O -0.7442152468367711 1.6337319428222419 -0.4916205222042592 0.0
O O -0.7689767527661361 1.7156885082972426 -0.49349418742377565 0.0
O O -0.7295435438019379 1.6337780065442822 -0.8058902894959203 0.0
O O -0.7272222986420438 1.7400430680946086 -0.7878293469374686 0.0
O O -0.8763315660842261 1.6321669405292327 -0.6614382497002793 0.0
O O -0.9147890953786701 1.7259259728367153 -0.6599415590717219 0.0
O O -0.8247970297545978 1.3367196245684154 -0.560331455524288 0.0
O O -0.49852830470831994 1.3183178998118361 -0.6589538995418808 0.0
O O -0.907249739865351 1.050786672580071 -0.6473594285742423 0.0
O O -0.5834374808139193 1.028490017395264 -0.7068157050484226 0.0
Zn Zn -0.7357355948316856 1.7484233343580882 -0.6435395100116444 0.0
Zn Zn -0.7253655221986156 1.6147420589872614 -0.6608026189242866 0.0
