_cell_length_a 12.935
_cell_length_b 23.242012
_cell_length_c 12.93505
_cell_angle_alpha 90.0
_cell_angle_beta 90.0
_cell_angle_gamma 90.0
_symmetry_space_group_name_H-M         'P 1'
_symmetry_Int_Tables_number            1
loop_
_symmetry_equiv_pos_as_xyz
   'x, y, z'
                         
loop_
_atom_site_label
_atom_site_type_symbol
_atom_site_fract_x 
_atom_site_fract_y
_atom_site_fract_z
_atom_site_charge
C C 0.5414574844174573 1.1979562005142492 0.6180551852814367 0.0
C C 0.4248771170953503 1.1954870730258904 0.6240647685873897 0.0
C C 0.3587378063739123 1.147640855017802 0.636942430690488 0.0
H H 0.39208780637391233 1.1112108550178021 0.6343924306904879 0.0
C C 0.2630536326714815 1.1555111150139519 0.6241990084934151 0.0
C C 0.20798466777178037 1.2229122719227468 0.6465392510815542 0.0
C C 0.27332120778296787 1.2607451696206247 0.6605719138824736 0.0
H H 0.24307120778296787 1.2979151696206244 0.6630319138824736 0.0
C C 0.38439938797067497 1.258824869011431 0.651729244292679 0.0
H H 0.42964938797067487 1.290894869011431 0.650379244292679 0.0
C C 0.19220982087201766 1.1118530970742084 0.6443736679995002 0.0
H H 0.21854982087201758 1.0740230970742084 0.6363136679995004 0.0
C C 0.0769025392145579 1.12423148883276 0.6574852278591554 0.0
H H 0.03435253921455793 1.09139148883276 0.6682352278591553 0.0
C C 0.033065466917039134 1.1746360630109463 0.6782257804954852 0.0
C C 0.1092449874298099 1.2213253807331543 0.6528360678436186 0.0
H H 0.08179498742980991 1.2591953807331544 0.6505860678436185 0.0
C C 0.7757863096325014 1.171506693885544 0.46203142780291645 0.0
C C 0.725651324741372 1.2015647074055753 0.8337932753604328 0.0
C C 0.736589791090162 1.2119660107048327 0.9586924308386102 0.0
C C 0.7215505911865149 1.1497935570934241 1.0398737757771408 0.0
H H 0.7230005911865147 1.1119635570934239 1.0119237757771409 0.0
C C 0.727873720888391 1.1644401701014864 1.1203146806112354 0.0
C C 0.7447772492094676 1.2032917169133097 1.1793132491167866 0.0
C C 0.7403126150894904 1.2606951713514334 1.106020590033842 0.0
H H 0.7585626150894905 1.2972751713514337 1.1328705900338418 0.0
C C 0.7391333757349208 1.257252406406666 1.0117232540463161 0.0
H H 0.7118833757349209 1.290122406406666 0.9776732540463161 0.0
C C 0.7428046328446002 1.1064031908427874 1.1998541906875488 0.0
H H 0.7548446328446002 1.0700731908427874 1.1684041906875489 0.0
C C 0.7529983706295942 1.1083967651992015 1.290896504411427 0.0
H H 0.7512283706295941 1.0746667651992017 1.3324365044114268 0.0
C C 0.7345248097193022 1.1763229680205056 1.3460686794843686 0.0
C C 0.7561402784293946 1.2151285373278506 1.2985080213650084 0.0
H H 0.7698902784293945 1.2511985373278505 1.3301680213650084 0.0
C C 0.9283744545411579 1.177021459093924 0.6609868877024938 0.0
C C 0.7554104501183592 1.0197655996146495 0.7758298240833644 0.0
H H 0.7796504501183592 1.0497355996146496 0.8193698240833645 0.0
C C 0.7851233338238903 0.9564544080063723 0.8234096472235145 0.0
H H 0.8050533338238903 0.9481144080063723 0.8924496472235146 0.0
C C 0.763303793606545 0.9307718423685364 0.7405106081565767 0.0
H H 0.7861437936065452 0.8926418423685364 0.7534506081565766 0.0
C C 0.6753144819906763 0.9369135731363629 0.6405811942060217 0.0
C C 0.6897212377742715 1.0084690017449003 0.6322452499710772 0.0
C C 0.6227098094659875 1.0062343431162795 0.5384297391574767 0.0
H H 0.6012598094659876 1.0448043431162795 0.5270697391574767 0.0
C C 0.5941753253343502 0.9774687259115938 0.47451939817364935 0.0
H H 0.5678053253343504 0.9904287259115938 0.4099493981736493 0.0
C C 0.5919866698349572 0.9141222997602089 0.4967962348128938 0.0
H H 0.5597166698349572 0.8858822997602087 0.45433623481289376 0.0
C C 0.6446488985476297 0.9008225490601787 0.5650416009135097 0.0
C C 0.5778323180445725 0.8130190832066386 0.614224549870132 0.0
C C 0.7638534017244406 0.8155356338620604 0.5705310005155871 0.0
C C 0.7654646286797585 0.7540731135088897 0.6159245143287756 0.0
C C 0.8617519075436889 0.7192117721253038 0.604417720939414 0.0
H H 0.9160819075436888 0.7397617721253038 0.571637720939414 0.0
C C 0.8935722289633089 0.6681726490719595 0.6205139989368451 0.0
H H 0.9630022289633089 0.6560026490719595 0.630223998936845 0.0
C C 0.802269718886289 0.6357801585275875 0.645889338842708 0.0
C C 0.7172937980332972 0.6700973891781882 0.6557583905599342 0.0
C C 0.7088237249129352 0.7311462115951957 0.6293214870752883 0.0
C C 0.5995345669906772 0.7341565067436512 0.6427202466305015 0.0
C C 0.5324297926989928 0.7114412382348368 0.6585311582496004 0.0
H H 0.4647797926989929 0.7268112382348367 0.6656711582496005 0.0
C C 0.5325854468299197 0.6474423173922413 0.6967163998147162 0.0
H H 0.4797154468299197 0.6232023173922412 0.7232463998147164 0.0
C C 0.6125077421798164 0.6371104371311219 0.671888237162591 0.0
C C 0.6476579152787548 0.5611242559263789 0.6791507583145621 0.0
C C 0.794778557659321 0.5767763700859773 0.6616354956724032 0.0
C C 0.7633365823597198 0.483935856129672 0.7271421582851509 0.0
C C 0.8040438066207156 0.4606067860600404 0.8386497260578059 0.0
H H 0.8134638066207156 0.49385678606004046 0.8801597260578059 0.0
C C 0.8591038468210939 0.4150111473597192 0.8722438847089196 0.0
H H 0.8987868468210938 0.4076211473597192 0.9326278847089194 0.0
C C 0.8099488941782945 0.3564920880094734 0.7847268086490824 0.0
H H 0.7962588941782945 0.31783208800947343 0.8042168086490823 0.0
C C 0.7760937356553241 0.38374433464374297 0.6741163130447141 0.0
C C 0.7485392397856382 0.42822123930845574 0.6543486599137172 0.0
C C 0.687055267285781 0.44336412931714825 0.541460356430847 0.0
H H 0.677785267285781 0.4820241293171482 0.519990356430847 0.0
C C 0.6666131183743973 0.3951810912556934 0.48546988922322437 0.0
H H 0.6269531183743972 0.3995410912556934 0.4241098892232244 0.0
C C 0.7130400695444408 0.3497834705135235 0.5183307589662349 0.0
H H 0.7089500695444406 0.3213234705135235 0.46545075896623483 0.0
N N 0.7329838778674803 1.0322035772636027 0.6878559026285608 0.0
N N 0.6602898343214448 0.8376021324496314 0.6124790375825278 0.0
N N 0.7440721827999749 0.5340962442880522 0.6871688878771287 0.0
N N 0.7364513801895375 0.32640004052253624 0.5961342962179251 0.0
O O 0.5876150709176196 1.1381899696869964 0.6286409121263553 0.0
O O 0.595008480705266 1.2379652643405392 0.6313069422713713 0.0
O O 0.7526784043536836 1.1326143913852196 0.5083061852036193 0.0
O O 0.7644872241192743 1.2307326784208588 0.48626074529194757 0.0
O O 0.7265300937641669 1.1350162520160063 0.8046926816679671 0.0
O O 0.7466050113488093 1.246487883605926 0.7935732365721073 0.0
O O 0.8673980535472342 1.128825515063621 0.6789811236243216 0.0
O O 0.9116093604781295 1.2307182005883421 0.6557123133581958 0.0
O O 0.8545405432501608 0.8414172658493791 0.548941141383687 0.0
O O 0.516706198004813 0.822135653982706 0.6473364961285889 0.0
O O 0.9164168071507188 0.556639660029315 0.6664400256816689 0.0
O O 0.5663656813070818 0.520324344131878 0.7185306252179676 0.0
Zn Zn 0.7487215454717405 1.247548304328343 0.6334263943396917 0.0
Zn Zn 0.7220881790421 1.1282943029403207 0.6723029084137025 0.0
C C -0.5370751006018413 1.6799475249702778 -0.6357222983810495 0.0
C C -0.4268057211309833 1.6973036474325494 -0.6493887820800964 0.0
C C -0.3769480738594815 1.6429633853575027 -0.6250310909799683 0.0
H H -0.41029807385948147 1.6065333853575028 -0.6224810909799683 0.0
C C -0.25778211902052706 1.6524727335231149 -0.6508668135561588 0.0
C C -0.2229453531376701 1.7081230169902342 -0.6503843192649927 0.0
C C -0.2931039038396977 1.76419812624231 -0.6390574359288118 0.0
H H -0.26285390383969776 1.80136812624231 -0.6415174359288118 0.0
C C -0.38955219246357775 1.758309276549026 -0.6403881949317167 0.0
H H -0.43480219246357776 1.790379276549026 -0.6390381949317168 0.0
C C -0.2065341380414127 1.6086400837336268 -0.6305946417846281 0.0
H H -0.2328741380414127 1.5708100837336267 -0.6225346417846281 0.0
C C -0.09191887856613967 1.6281258731604964 -0.6705470546222262 0.0
H H -0.04936887856613969 1.5952858731604964 -0.6812970546222261 0.0
C C -0.052620000321445995 1.6781792563843538 -0.6773881404581541 0.0
C C -0.11444189958413674 1.7186799517786517 -0.6754105402633069 0.0
H H -0.08699189958413675 1.7565499517786516 -0.6731605402633069 0.0
C C -0.7638024358455553 1.6691774757931621 -0.4585114247690748 0.0
C C -0.7228954212623507 1.6902615688587217 -0.8357091967714003 0.0
C C -0.7287496531391136 1.7064984357565964 -0.9416517403289195 0.0
C C -0.7470994719017466 1.6470699489415674 -1.0124957395956837 0.0
H H -0.7485494719017465 1.6092399489415674 -0.9845457395956839 0.0
C C -0.7558967210780738 1.6516440978435472 -1.1079819817103362 0.0
C C -0.73679327549048 1.7077688851433392 -1.1647319243112615 0.0
C C -0.7398834677261614 1.7589561843802024 -1.1201138778490891 0.0
H H -0.7581334677261615 1.7955361843802025 -1.1469638778490892 0.0
C C -0.7398059374280903 1.760177750427471 -1.0003246345417343 0.0
H H -0.7125559374280903 1.793047750427471 -0.9662746345417342 0.0
C C -0.7487885725548517 1.6119744332018655 -1.1940045280588643 0.0
H H -0.7608285725548517 1.5756444332018653 -1.1625545280588643 0.0
C C -0.7460375580600783 1.6033295344457696 -1.3158337950667098 0.0
H H -0.7442675580600783 1.5695995344457698 -1.3573737950667097 0.0
C C -0.761940590040904 1.6715653385726117 -1.3362028161755661 0.0
C C -0.7681082143651937 1.7238383808950437 -1.2893801851408009 0.0
H H -0.7818582143651936 1.7599083808950435 -1.321040185140801 0.0
C C -0.934601968234818 1.6800145720811932 -0.6554561246402066 0.0
C C -0.7644075583092859 1.5144821564658748 -0.7900038081981164 0.0
H H -0.7886475583092859 1.544452156465875 -0.8335438081981165 0.0
C C -0.771509722366694 1.4679230164813857 -0.8187983896063018 0.0
H H -0.791439722366694 1.4595830164813857 -0.8878383896063019 0.0
C C -0.7366819958983932 1.4180147215128598 -0.7456540834893473 0.0
H H -0.7595219958983934 1.3798847215128598 -0.7585940834893472 0.0
C C -0.6947597870028611 1.4350892952827135 -0.6639405885679581 0.0
C C -0.6975866398696393 1.505135588696129 -0.622282895944586 0.0
C C -0.637902628477288 1.5063083101661 -0.5346876540773765 0.0
H H -0.6164526284772881 1.5448783101661 -0.5233276540773765 0.0
C C -0.6051669382945651 1.478349200029916 -0.47478800129199106 0.0
H H -0.5787969382945654 1.4913092000299162 -0.410218001291991 0.0
C C -0.5826418515167068 1.4184568534644777 -0.5069336641620308 0.0
H H -0.5503718515167068 1.390216853464478 -0.46447366416203073 0.0
C C -0.6375099835796527 1.3933636941166785 -0.5792270874907438 0.0
C C -0.5810347168241456 1.306623381047115 -0.6141457358405134 0.0
C C -0.77194101731051 1.3122033467410557 -0.5657118127040652 0.0
C C -0.7790854844381547 1.246471946812599 -0.6126728781353401 0.0
C C -0.8679647952423576 1.2177738331269639 -0.6015686238610987 0.0
H H -0.9222947952423575 1.2383238331269637 -0.5687886238610986 0.0
C C -0.8783297219413874 1.17622653261016 -0.6222980774872209 0.0
H H -0.9477597219413872 1.16405653261016 -0.6320080774872208 0.0
C C -0.8280555329150471 1.137486378227317 -0.6318793036002158 0.0
C C -0.7206871604469558 1.1672925245433898 -0.6716835125002892 0.0
C C -0.7068009032500121 1.2161692809792664 -0.6301147096745938 0.0
C C -0.6083449855964865 1.2328879540430386 -0.6406962724329408 0.0
C C -0.5250408292181793 1.2071732897025167 -0.6604743867049669 0.0
H H -0.45739082921817925 1.2225432897025168 -0.667614386704967 0.0
C C -0.5330684432899003 1.1416089200605573 -0.6750626597482116 0.0
H H -0.48019844328990025 1.1173689200605574 -0.7015926597482116 0.0
C C -0.6089722215974801 1.1321898602537837 -0.6742338083379774 0.0
C C -0.6308953969282426 1.0645136774677375 -0.677502196827964 0.0
C C -0.8016474986204546 1.06924383459804 -0.652449046407388 0.0
C C -0.7803933555565026 0.9731288684067713 -0.7165985818055964 0.0
C C -0.8100693244334198 0.9734665196432037 -0.8347938619511462 0.0
H H -0.8194893244334198 1.006716519643204 -0.8763038619511464 0.0
C C -0.8510075138149293 0.8983488572213826 -0.8776758496833982 0.0
H H -0.8906905138149293 0.8909588572213826 -0.9380598496833982 0.0
C C -0.789917233113483 0.8635119542968538 -0.7725397835371324 0.0
H H -0.7762272331134831 0.8248519542968539 -0.7920297835371323 0.0
C C -0.7785609962447582 0.8862496720136936 -0.659392196358028 0.0
C C -0.7424194157916226 0.9347387844079263 -0.626603426446661 0.0
C C -0.706411954858396 0.9457504222253379 -0.5479148573511881 0.0
H H -0.697141954858396 0.9844104222253379 -0.526444857351188 0.0
C C -0.6789536700841242 0.9006007908497912 -0.4728910086556597 0.0
H H -0.6392936700841241 0.9049607908497911 -0.4115310086556597 0.0
C C -0.6978866138414062 0.8505476865175091 -0.5179630131338023 0.0
H H -0.693796613841406 0.8220876865175091 -0.46508301313380235 0.0
N N -0.7091621374476899 1.5349422014292182 -0.6867912543053236 0.0
N N -0.6774839300627266 1.3284841233084974 -0.5938687037460737 0.0
N N -0.7534799222584483 1.047919546780503 -0.6833298784481356 0.0
N N -0.7403084220203073 0.84282865200214 -0.6185048257737099 0.0
O O -0.5699456608355766 1.6464639033015023 -0.6180618284211953 0.0
O O -0.5832154465788543 1.733985640738654 -0.6345470118725078 0.0
O O -0.7542655521971465 1.6215403900631622 -0.5154401255962842 0.0
O O -0.763926790988293 1.727039363539003 -0.4774488565376694 0.0
O O -0.7295014959840916 1.6352509466323992 -0.7933007429797229 0.0
O O -0.7230915778384872 1.7372757458963741 -0.7885506064660738 0.0
O O -0.8846039611420909 1.6397922401404355 -0.6757120869957531 0.0
O O -0.8900252808556156 1.72986258727379 -0.6581145018248845 0.0
O O -0.8535408909889246 1.3509303843140494 -0.553678943142818 0.0
O O -0.5133656924741452 1.3336801612809452 -0.6477333933023012 0.0
O O -0.9116285774654148 1.0480076274249315 -0.6641283059956217 0.0
O O -0.5774993573643463 1.025724255075277 -0.7049581156255948 0.0
Zn Zn -0.7630866581251252 1.7545205259605092 -0.6501884399326077 0.0
Zn Zn -0.7129645761204889 1.617577864624767 -0.6564786569904364 0.0
