_cell_length_a 12.935
_cell_length_b 23.242012
_cell_length_c 12.93505
_cell_angle_alpha 90.0
_cell_angle_beta 90.0
_cell_angle_gamma 90.0
_symmetry_space_group_name_H-M         'P 1'
_symmetry_Int_Tables_number            1
loop_
_symmetry_equiv_pos_as_xyz
   'x, y, z'
                         
loop_
_atom_site_label
_atom_site_type_symbol
_atom_site_fract_x 
_atom_site_fract_y
_atom_site_fract_z
_atom_site_charge
C C 0.5379952506719331 1.1917661062698202 0.6371508598469973 0.0
C C 0.42245691159351995 1.1948760038920088 0.6400101249047573 0.0
C C 0.38340985145075523 1.1467382874916678 0.6384026792562302 0.0
H H 0.4167598514507552 1.1103082874916679 0.6358526792562301 0.0
C C 0.24365344598798264 1.155245844389475 0.637803358533197 0.0
C C 0.20597253396835039 1.2137029732410696 0.6777110344329936 0.0
C C 0.29161968668748894 1.2610328000407873 0.6444076756295455 0.0
H H 0.2613696866874889 1.2982028000407873 0.6468676756295455 0.0
C C 0.38907295123697117 1.2671604371677998 0.6433263870144655 0.0
H H 0.4343229512369711 1.2992304371677998 0.6419763870144655 0.0
C C 0.2049858014864008 1.1167868559027054 0.6395114194685331 0.0
H H 0.23132580148640072 1.0789568559027052 0.6314514194685331 0.0
C C 0.10157583665113401 1.1218540773641297 0.6439108766889735 0.0
H H 0.059025836651134034 1.0890140773641297 0.6546608766889734 0.0
C C 0.02546070583905886 1.1758247883351063 0.6583242319045487 0.0
C C 0.11936391746611924 1.220629360966137 0.6768112540905403 0.0
H H 0.09191391746611925 1.258499360966137 0.6745612540905401 0.0
C C 0.7536360001279174 1.1711771726892897 0.44757977278936584 0.0
C C 0.7296344635030945 1.197464355842947 0.8539286050746661 0.0
C C 0.7274443798485994 1.1951899653083442 0.9515970366485649 0.0
C C 0.749120594161858 1.1525441806857535 1.0364243535387732 0.0
H H 0.750570594161858 1.1147141806857535 1.008474353538773 0.0
C C 0.7279567422048909 1.1482344936034505 1.1264778594844176 0.0
C C 0.748776140105277 1.2081724461704288 1.1825286888914508 0.0
C C 0.7544610970212712 1.2638559521009811 1.1069933302712256 0.0
H H 0.7727110970212713 1.3004359521009814 1.1338433302712256 0.0
C C 0.7198510776922739 1.2462549266451206 1.0227532899604987 0.0
H H 0.6926010776922739 1.2791249266451206 0.9887032899604987 0.0
C C 0.7596103787440323 1.1114878329575193 1.196840667710162 0.0
H H 0.7716503787440322 1.0751578329575193 1.1653906677101618 0.0
C C 0.7436546804908118 1.1074472254193566 1.2976005062936278 0.0
H H 0.7418846804908118 1.0737172254193568 1.339140506293628 0.0
C C 0.7536745477829242 1.1613734479987599 1.3290492484409822 0.0
C C 0.7617173454539509 1.2143201439904063 1.2799525705328763 0.0
H H 0.7754673454539508 1.2503901439904062 1.3116125705328763 0.0
C C 0.9282152395948808 1.186937781680793 0.6764940916795601 0.0
C C 0.767249375317764 1.0067324769847883 0.7693040220265869 0.0
H H 0.791489375317764 1.0367024769847883 0.8128440220265869 0.0
C C 0.7761344532662695 0.9692194419314487 0.8250561576966047 0.0
H H 0.7960644532662695 0.9608794419314486 0.8940961576966047 0.0
C C 0.7378010900833744 0.9212833492726105 0.7614176699005947 0.0
H H 0.7606410900833745 0.8831533492726105 0.7743576699005946 0.0
C C 0.6965244186571194 0.933701182306786 0.636647644885054 0.0
C C 0.7037716658297167 1.0079176163521217 0.6374095280843716 0.0
C C 0.6248222903559011 1.0068185099551792 0.5274107227643158 0.0
H H 0.6033722903559012 1.0453885099551792 0.5160507227643157 0.0
C C 0.6090826463832434 0.9706003093715924 0.46830004794987673 0.0
H H 0.5827126463832435 0.9835603093715924 0.40373004794987666 0.0
C C 0.5934393765689328 0.9049813368987647 0.49782309371180933 0.0
H H 0.5611693765689327 0.8767413368987645 0.45536309371180933 0.0
C C 0.6628925170187854 0.9023038540505341 0.5654733155205598 0.0
C C 0.5702292389240056 0.8054070802028982 0.6184335017442963 0.0
C C 0.7700054904781741 0.8093210168975938 0.5711183154671367 0.0
C C 0.7761686435298863 0.7547302256131323 0.5951246334921095 0.0
C C 0.8686641935733822 0.7305191052653862 0.5963995654587501 0.0
H H 0.9229941935733821 0.7510691052653862 0.56361956545875 0.0
C C 0.8848365832016325 0.6686067421935602 0.606237385879437 0.0
H H 0.9542665832016325 0.6564367421935602 0.6159473858794369 0.0
C C 0.8046353388212085 0.641978662241961 0.6349722878521622 0.0
C C 0.7051579208287322 0.6528186515972922 0.654653278320052 0.0
C C 0.7077699588951473 0.7266284211182535 0.6291634658482901 0.0
C C 0.606391034861128 0.7471617293982539 0.6542581999434128 0.0
C C 0.5197688114803837 0.7144418258392102 0.6787116649785161 0.0
H H 0.4521188114803837 0.7298118258392102 0.6858516649785161 0.0
C C 0.5469388175718908 0.6506244612259318 0.6990145145437302 0.0
H H 0.4940688175718908 0.6263844612259317 0.7255445145437304 0.0
C C 0.6257527243937704 0.6300782205235796 0.6683126589804497 0.0
C C 0.6312628464440901 0.5517897261195361 0.6625569161397241 0.0
C C 0.8194029929463172 0.5747452343028298 0.6432442441187565 0.0
C C 0.7654674469666867 0.4699138434279659 0.717316162217072 0.0
C C 0.8146129883603006 0.47614203803904476 0.8165628718802556 0.0
H H 0.8240329883603005 0.5093920380390449 0.8580728718802556 0.0
C C 0.849370861760464 0.4090780510645624 0.876282591714523 0.0
H H 0.8890538617604637 0.4016880510645624 0.936666591714523 0.0
C C 0.8004678283896726 0.3576185000687006 0.7868775272890816 0.0
H H 0.7867778283896726 0.3189585000687007 0.8063675272890815 0.0
C C 0.7862641223984408 0.38412654757047043 0.667624072752013 0.0
C C 0.7368426744038563 0.4423838066214043 0.6427372363411888 0.0
C C 0.6994443676829168 0.45410306836069314 0.5380544962540629 0.0
H H 0.6901743676829168 0.49276306836069306 0.5165844962540629 0.0
C C 0.6649393851822073 0.408211786975643 0.4646325586459923 0.0
H H 0.6252793851822072 0.412571786975643 0.4032725586459923 0.0
C C 0.7101668748739082 0.35103178756348974 0.5014301511215501 0.0
H H 0.706076874873908 0.3225717875634897 0.4485501511215501 0.0
N N 0.7286233862045156 1.029382555475543 0.701155782527929 0.0
N N 0.6726711456958537 0.840762248915981 0.6068874983408951 0.0
N N 0.7339932750456888 0.5419215722644727 0.6928941423339905 0.0
N N 0.742414386117244 0.32682228242212313 0.6053078188548858 0.0
O O 0.5825475766509737 1.1497180492952028 0.644464436156365 0.0
O O 0.5843203202983044 1.237365870174665 0.6105267428827128 0.0
O O 0.7562749835143733 1.1240037203644717 0.5167373851577706 0.0
O O 0.7379098930970814 1.2144860592666407 0.4975017639434418 0.0
O O 0.73262557484657 1.1426353067643866 0.7961862391878415 0.0
O O 0.7550326241547071 1.2460185686014238 0.7948218433424021 0.0
O O 0.88389043028911 1.1264503097109189 0.6642316156300562 0.0
O O 0.9064268146751271 1.23552404582715 0.6611052852867275 0.0
O O 0.828078519935191 0.8360060248925515 0.5605027981222341 0.0
O O 0.5053503813403855 0.8193802200326974 0.6329861610799822 0.0
O O 0.9111613532580203 0.5533814541756669 0.6640694336945713 0.0
O O 0.582911900225169 0.5324349040108671 0.7284280279931765 0.0
Zn Zn 0.7461884226640842 1.2515855638984867 0.6433159661120912 0.0
Zn Zn 0.7429161413911374 1.118414500925367 0.6436831737492157 0.0
C C -0.544809021944853 1.6941784350533928 -0.6324527053383907 0.0
C C -0.42320078344873774 1.705508671812559 -0.6375385390918393 0.0
C C -0.35850205928887435 1.6584213751323937 -0.6495986197096447 0.0
H H -0.39185205928887434 1.6219913751323938 -0.6470486197096447 0.0
C C -0.2649007060786677 1.656835798743225 -0.6272190661793654 0.0
C C -0.2275432807095928 1.7172444404990945 -0.6651939000305529 0.0
C C -0.2944238271343965 1.7615571094793263 -0.6729012312872681 0.0
H H -0.2641738271343966 1.7987271094793262 -0.6753612312872681 0.0
C C -0.3748682552324491 1.7615138567135853 -0.646805685519524 0.0
H H -0.4201182552324491 1.7935838567135853 -0.645455685519524 0.0
C C -0.18826007894346652 1.6158084030145727 -0.6554577974078725 0.0
H H -0.21460007894346647 1.5779784030145727 -0.6473977974078726 0.0
C C -0.08375010891391695 1.6252632108864942 -0.6747409879610977 0.0
H H -0.04120010891391696 1.5924232108864942 -0.6854909879610978 0.0
C C -0.05454180968904041 1.6698425927469527 -0.6549900785211469 0.0
C C -0.11764781426599634 1.719139532837681 -0.6762411021883935 0.0
H H -0.09019781426599635 1.7570095328376811 -0.6739911021883934 0.0
C C -0.7756887283185586 1.6692967205518838 -0.469353207981364 0.0
C C -0.7176736153872098 1.7010717133793605 -0.8630299407660076 0.0
C C -0.725708866954515 1.7069002806757354 -0.9394662044572315 0.0
C C -0.7326353192184892 1.6398692510508381 -1.0359527175556003 0.0
H H -0.7340853192184891 1.602039251050838 -1.0080027175556003 0.0
C C -0.7482204836613356 1.645834076535953 -1.1326340005773767 0.0
C C -0.7455824501925303 1.7170699673765522 -1.1733395030179288 0.0
C C -0.7611308872449144 1.760648893773381 -1.099764943559606 0.0
H H -0.7793808872449145 1.7972288937733811 -1.126614943559606 0.0
C C -0.727869172157288 1.7577803771131493 -1.0227717137258683 0.0
H H -0.700619172157288 1.7906503771131494 -0.9887217137258683 0.0
C C -0.756175860937097 1.601193637664382 -1.2058499530468882 0.0
H H -0.7682158609370969 1.564863637664382 -1.1743999530468883 0.0
C C -0.7534827157002933 1.613923899419087 -1.282911964046483 0.0
H H -0.7517127157002932 1.5801938994190872 -1.3244519640464831 0.0
C C -0.7582670024967479 1.6738762542623378 -1.347342269595695 0.0
C C -0.7467147988120186 1.7101502479930513 -1.2805223575390394 0.0
H H -0.7604647988120186 1.746220247993051 -1.3121823575390394 0.0
C C -0.9401736760683004 1.670903483311849 -0.6780583999799995 0.0
C C -0.7642778169646808 1.5192969782841388 -0.7750051867426416 0.0
H H -0.7885178169646807 1.5492669782841388 -0.8185451867426415 0.0
C C -0.7533338723514686 1.4687271458273448 -0.813615348461514 0.0
H H -0.7732638723514687 1.4603871458273447 -0.8826553484615139 0.0
C C -0.7487552230019484 1.4268521634718156 -0.7489289997110152 0.0
H H -0.7715952230019486 1.3887221634718159 -0.7618689997110152 0.0
C C -0.7040740541966497 1.4329488534272619 -0.6418634869708351 0.0
C C -0.6876263518839334 1.4990750667015467 -0.6213400406897893 0.0
C C -0.6139494841787084 1.5166165405878482 -0.5257747040668986 0.0
H H -0.5924994841787085 1.5551865405878484 -0.5144147040668987 0.0
C C -0.5821149812281238 1.4709022684030333 -0.48671442503192136 0.0
H H -0.5557449812281239 1.4838622684030331 -0.42214442503192134 0.0
C C -0.595496042474677 1.4183903441892751 -0.5012320424817454 0.0
H H -0.563226042474677 1.3901503441892753 -0.4587720424817453 0.0
C C -0.6637474525171078 1.4046904314810624 -0.581909257757025 0.0
C C -0.5931399791039084 1.2970624473894552 -0.6207203643097088 0.0
C C -0.7738905652045808 1.317775267704873 -0.5874115545438369 0.0
C C -0.7685443130591334 1.2542560565491316 -0.6068228819797529 0.0
C C -0.8794810538353066 1.223786978028699 -0.591082400047274 0.0
H H -0.9338110538353065 1.2443369780286988 -0.5583024000472739 0.0
C C -0.8919926646220203 1.1848415656461153 -0.6061270616581474 0.0
H H -0.9614226646220202 1.1726715656461153 -0.6158370616581473 0.0
C C -0.8296179951590333 1.1370107480806217 -0.6254941872491392 0.0
C C -0.7208997674302886 1.1628045256402813 -0.6404349544563305 0.0
C C -0.7083206903880159 1.223395826091462 -0.6252810018129478 0.0
C C -0.5989558660461332 1.233335711217544 -0.651675793180661 0.0
C C -0.5269271529882046 1.2035858604851555 -0.6623883790051848 0.0
H H -0.45927715298820454 1.2189558604851556 -0.6695283790051848 0.0
C C -0.5325405836433467 1.1427479613772733 -0.6919078969429467 0.0
H H -0.47967058364334664 1.1185079613772733 -0.7184378969429469 0.0
C C -0.6145822843834848 1.130314565160681 -0.666638050282035 0.0
C C -0.6272426278869938 1.0551531099065787 -0.6739784087442416 0.0
C C -0.8068295572472225 1.0699598176656282 -0.6619781864751463 0.0
C C -0.7657358648909142 0.9793086680417483 -0.7153927948258113 0.0
C C -0.8133719350027033 0.9606833899607019 -0.8171990934044553 0.0
H H -0.8227919350027034 0.9939333899607022 -0.8587090934044554 0.0
C C -0.8509877694494056 0.9050257839685907 -0.8793119673684532 0.0
H H -0.8906707694494054 0.8976357839685907 -0.9396959673684531 0.0
C C -0.7990212100808142 0.8603052678463613 -0.770015161747239 0.0
H H -0.7853312100808141 0.8216452678463614 -0.7895051617472391 0.0
C C -0.7637837609308572 0.8879565401140431 -0.6607642598369707 0.0
C C -0.7438663182782093 0.9407533885472436 -0.6416693910764717 0.0
C C -0.6944392004038971 0.9583353550044356 -0.5273022022220569 0.0
H H -0.6851692004038972 0.9969953550044356 -0.5058322022220569 0.0
C C -0.671545450414956 0.8985247238833993 -0.4743754052532601 0.0
H H -0.6318854504149559 0.9028847238833994 -0.41301540525326014 0.0
C C -0.6827072139885086 0.8546263835394083 -0.5112418645427528 0.0
H H -0.6786172139885085 0.8261663835394084 -0.45836186454275274 0.0
N N -0.7252755123406486 1.5232376781208432 -0.6950846181673709 0.0
N N -0.6688424067649602 1.3376712671535778 -0.6057648170102157 0.0
N N -0.7600786017496783 1.044436741017607 -0.6689187927216946 0.0
N N -0.7289610649650454 0.8304096349444211 -0.5981915474726432 0.0
O O -0.5667993464250293 1.6490845421267082 -0.6215214069919484 0.0
O O -0.5960546569555806 1.7305037494524764 -0.6316828066563038 0.0
O O -0.7613929802594875 1.6342744356596257 -0.49908143958844714 0.0
O O -0.7488474287448401 1.7266491273837348 -0.5068441291533496 0.0
O O -0.7233064429125253 1.6498727748276347 -0.79098808066157 0.0
O O -0.7261941007029012 1.7486795214680422 -0.7906143897058068 0.0
O O -0.8847755723727835 1.6279777886733888 -0.6799304394401625 0.0
O O -0.907705210921215 1.7322236307246879 -0.6590294910483001 0.0
O O -0.8529681905615654 1.334776207456079 -0.5629815932288621 0.0
O O -0.5174581449948147 1.319351992273256 -0.6421686327624027 0.0
O O -0.9204908027027182 1.043075605130018 -0.652442099053517 0.0
O O -0.5583077921262106 1.0370203974144165 -0.7120989760677883 0.0
Zn Zn -0.74577181334085 1.7473146387038128 -0.6258211926619207 0.0
Zn Zn -0.7236027254358596 1.6177994868652705 -0.6526577809808676 0.0
