_cell_length_a 12.935
_cell_length_b 23.242012
_cell_length_c 12.93505
_cell_angle_alpha 90.0
_cell_angle_beta 90.0
_cell_angle_gamma 90.0
_symmetry_space_group_name_H-M         'P 1'
_symmetry_Int_Tables_number            1
loop_
_symmetry_equiv_pos_as_xyz
   'x, y, z'
                         
loop_
_atom_site_label
_atom_site_type_symbol
_atom_site_fract_x 
_atom_site_fract_y
_atom_site_fract_z
_atom_site_charge
C C 0.5638611411660099 1.1840172097922161 0.6250454049596111 0.0
C C 0.43167693390996453 1.2000709645187841 0.6419946157366366 0.0
C C 0.38851813381209344 1.152235396021171 0.6242538878235084 0.0
H H 0.4218681338120935 1.1158053960211711 0.6217038878235084 0.0
C C 0.25503673106204816 1.1613792752405858 0.6242915760763504 0.0
C C 0.22961754479182872 1.215816874295833 0.6795059791194683 0.0
C C 0.2931995712015623 1.2661289513779699 0.6614377639108299 0.0
H H 0.26294957120156237 1.3032989513779698 0.6638977639108299 0.0
C C 0.3915895671997464 1.2557431369033594 0.6320569136788542 0.0
H H 0.4368395671997463 1.2878131369033594 0.6307069136788542 0.0
C C 0.18915092670838005 1.1164552546982267 0.6377123665810513 0.0
H H 0.21549092670837997 1.0786252546982265 0.6296523665810515 0.0
C C 0.09984945056377015 1.1234595087707073 0.6540496595716567 0.0
H H 0.057299450563770185 1.0906195087707073 0.6647996595716568 0.0
C C 0.03619340074809865 1.1781653443420534 0.6491974954719265 0.0
C C 0.10341627478280531 1.2211777387291114 0.6758064255131279 0.0
H H 0.07596627478280532 1.2590477387291115 0.6735564255131278 0.0
C C 0.7685944647079551 1.17174417836674 0.44293397370703935 0.0
C C 0.7435494061630165 1.1960337473052376 0.8396607934644172 0.0
C C 0.7322068042357385 1.2123810007959908 0.9469950407587463 0.0
C C 0.7257754040532332 1.1405166365262915 1.0254328335659992 0.0
H H 0.727225404053233 1.1026866365262913 0.9974828335659993 0.0
C C 0.7425548410258351 1.1583292259139446 1.1124598217973845 0.0
C C 0.7528993498778311 1.219950625919324 1.16425887677781 0.0
C C 0.746210873590374 1.2674971158300081 1.1225192206286834 0.0
H H 0.7644608735903741 1.3040771158300084 1.1493692206286834 0.0
C C 0.7156809687399671 1.257609216011892 1.0261578177191066 0.0
H H 0.6884309687399672 1.2904792160118919 0.9921078177191067 0.0
C C 0.7535345251946267 1.1087129263533062 1.204873900513381 0.0
H H 0.7655745251946267 1.0723829263533062 1.173423900513381 0.0
C C 0.7510047243302019 1.0994789839045482 1.3121030859999177 0.0
H H 0.7492347243302018 1.0657489839045482 1.3536430859999176 0.0
C C 0.7614479812527432 1.1645089422799826 1.3541619593040324 0.0
C C 0.768101686102276 1.2176566869874967 1.2762432738462501 0.0
H H 0.7818516861022761 1.2537266869874968 1.3079032738462502 0.0
C C 0.9404035187637502 1.173975571199738 0.6527947320631645 0.0
C C 0.7437311688164527 1.0126566865498203 0.7764641169109469 0.0
H H 0.7679711688164527 1.0426266865498206 0.8200041169109469 0.0
C C 0.7663968776435931 0.969435634789791 0.8275158010096927 0.0
H H 0.7863268776435931 0.9610956347897909 0.8965558010096927 0.0
C C 0.7335042433364569 0.918482731406974 0.7428579515703648 0.0
H H 0.756344243336457 0.880352731406974 0.7557979515703648 0.0
C C 0.6910498100808179 0.9330262998808387 0.6348468292235088 0.0
C C 0.696060341271804 1.0092957620887433 0.6391645982117936 0.0
C C 0.6212759152479179 1.0136291220580635 0.5268130796241468 0.0
H H 0.5998259152479181 1.0521991220580635 0.5154530796241468 0.0
C C 0.5989735749907505 0.983463300190181 0.4809043065654865 0.0
H H 0.5726035749907508 0.9964233001901811 0.4163343065654864 0.0
C C 0.5921928930872542 0.9148435609905884 0.49047118380943155 0.0
H H 0.5599228930872541 0.8866035609905882 0.44801118380943156 0.0
C C 0.6549897699448639 0.8936697727709576 0.5671154115670047 0.0
C C 0.5797933482883155 0.8075526593156337 0.609165075977597 0.0
C C 0.7646507798459395 0.8058618117513263 0.5969463775068603 0.0
C C 0.7622033163967019 0.7518343515914774 0.6022909054192016 0.0
C C 0.8610385696326144 0.7324208675361228 0.5941772392193636 0.0
H H 0.9153685696326143 0.7529708675361227 0.5613972392193636 0.0
C C 0.9053307450260669 0.6706246469161852 0.6179435367385532 0.0
H H 0.9747607450260668 0.6584546469161852 0.6276535367385532 0.0
C C 0.7983632514474547 0.6405331258722622 0.6495333981678167 0.0
C C 0.7132282314137989 0.6565018435817375 0.657301907171997 0.0
C C 0.7019546692854847 0.7173262132816038 0.6254363366613369 0.0
C C 0.6016960514970555 0.7421315959212538 0.6484093718597611 0.0
C C 0.5025477350849953 0.7064518842033851 0.6634668189686183 0.0
H H 0.43489773508499524 0.7218218842033851 0.6706068189686183 0.0
C C 0.5417818299955868 0.6406327591069502 0.6678684651767469 0.0
H H 0.48891182999558674 0.6163927591069501 0.694398465176747 0.0
C C 0.6141691795421989 0.6220652520128438 0.647549821333339 0.0
C C 0.642994858821995 0.5491518289915143 0.6687767347507719 0.0
C C 0.8084257027628773 0.5623580432577294 0.6509602297781127 0.0
C C 0.7637235241184626 0.4681166863956725 0.7069262229079514 0.0
C C 0.8102369062712573 0.4665614222599914 0.8331729103579121 0.0
H H 0.8196569062712574 0.4998114222599915 0.8746829103579122 0.0
C C 0.8366355801692184 0.40817251601639465 0.8654163847124343 0.0
H H 0.8763185801692183 0.4007825160163946 0.9258003847124342 0.0
C C 0.8126186207057445 0.35810619636067664 0.7883746637833237 0.0
H H 0.7989286207057446 0.31944619636067667 0.8078646637833237 0.0
C C 0.778224554039247 0.3773757476529586 0.6753644996357168 0.0
C C 0.7342160869008793 0.43241987359817036 0.6401161241606689 0.0
C C 0.6868631895853559 0.4415385293683261 0.5422013331452478 0.0
H H 0.6775931895853559 0.4801985293683261 0.5207313331452478 0.0
C C 0.6685311518628319 0.4087856724316684 0.46437718450094817 0.0
H H 0.6288711518628318 0.41314567243166844 0.4030171845009482 0.0
C C 0.6875869728945043 0.3611855643772548 0.5023493446095929 0.0
H H 0.6834969728945042 0.3327255643772548 0.44946934460959287 0.0
N N 0.7082374168461483 1.0272165655476129 0.6997320349471656 0.0
N N 0.6846939611686208 0.8393850905457564 0.6120572410850617 0.0
N N 0.736243135533789 0.5375451266621126 0.668563656822099 0.0
N N 0.7377093944956318 0.3371950786081791 0.5910303780657304 0.0
O O 0.5719806884244227 1.139192089533547 0.6335308003013792 0.0
O O 0.5738198234139381 1.239674644350802 0.6273537900983813 0.0
O O 0.7626398682089927 1.1330508774125043 0.5033695565783889 0.0
O O 0.7504141344568458 1.2258658651842282 0.49385197240607137 0.0
O O 0.7066400752178716 1.1470207123348548 0.8217121357243501 0.0
O O 0.7552600492280546 1.2451644362231393 0.7832652319632354 0.0
O O 0.8934656898598965 1.1315247403986857 0.6629974328020964 0.0
O O 0.8901338456283668 1.2267023269434363 0.6350185514991681 0.0
O O 0.8313465655582974 0.8516521780095782 0.5522405565892855 0.0
O O 0.5166284745207922 0.8251302423005948 0.6325396199629891 0.0
O O 0.926680275031141 0.5585497050847724 0.6554153907307091 0.0
O O 0.5578874084745707 0.5281321089207054 0.7058915446687073 0.0
Zn Zn 0.7419533719243382 1.2463436008359157 0.6315485269305543 0.0
Zn Zn 0.7117044654342742 1.127825418125408 0.6470620603914783 0.0
C C -0.5592827274320772 1.69486447731173 -0.6348698720679176 0.0
C C -0.4145905015341095 1.6921106834654631 -0.6222752540224494 0.0
C C -0.38522435221995643 1.648302893004795 -0.6239610214988774 0.0
H H -0.4185743522199564 1.611872893004795 -0.6214110214988775 0.0
C C -0.2495257293731007 1.6511814282488841 -0.6402428362263293 0.0
C C -0.2287312504726132 1.7156676549390464 -0.6532093751606283 0.0
C C -0.2669239172197017 1.7724416308883602 -0.6462687807918825 0.0
H H -0.2366739172197017 1.80961163088836 -0.6487287807918826 0.0
C C -0.3777548022294641 1.7654350095127502 -0.658742282280012 0.0
H H -0.42300480222946407 1.7975050095127503 -0.657392282280012 0.0
C C -0.17787248527046676 1.6116878009099567 -0.6545124468853608 0.0
H H -0.2042124852704667 1.5738578009099569 -0.6464524468853609 0.0
C C -0.09320336066785714 1.6179513018119607 -0.6760436616042993 0.0
H H -0.05065336066785717 1.585111301811961 -0.6867936616042993 0.0
C C -0.05237070993290823 1.6689748402264093 -0.6567017729373291 0.0
C C -0.09980209032942661 1.7231843073160527 -0.6653471150048884 0.0
H H -0.07235209032942662 1.7610543073160525 -0.6630971150048883 0.0
C C -0.7682542687316345 1.6813338459793088 -0.46404392031413966 0.0
C C -0.7331790328461861 1.7012243847358752 -0.8578327089859955 0.0
C C -0.7173757745723304 1.6996472430278473 -0.9608410248073518 0.0
C C -0.7410625351268787 1.6423850910962974 -1.0306393905814082 0.0
H H -0.7425125351268785 1.6045550910962976 -1.0026893905814083 0.0
C C -0.7299904194474376 1.6634684341562298 -1.129429058979497 0.0
C C -0.7551308029250575 1.7180846908352494 -1.152917078668215 0.0
C C -0.7611603859748265 1.7676982609671437 -1.1025353631585406 0.0
H H -0.7794103859748266 1.8042782609671437 -1.1293853631585407 0.0
C C -0.7423535011886749 1.7519638213634063 -0.9994562108916395 0.0
H H -0.7151035011886749 1.7848338213634065 -0.9654062108916395 0.0
C C -0.763513859965177 1.6018419911314905 -1.1779632453500193 0.0
H H -0.7755538599651769 1.5655119911314903 -1.1465132453500193 0.0
C C -0.762016902395357 1.613152695034834 -1.292214127721268 0.0
H H -0.760246902395357 1.579422695034834 -1.3337541277212681 0.0
C C -0.7393589740931996 1.6683095008812867 -1.351768874717204 0.0
C C -0.759972992703202 1.7178035017078124 -1.284461175652942 0.0
H H -0.773722992703202 1.7538735017078122 -1.316121175652942 0.0
C C -0.9349420217144784 1.6764826607290444 -0.6830342660799331 0.0
C C -0.7522864815191223 1.509887189407956 -0.7767114134793627 0.0
H H -0.7765264815191223 1.5398571894079562 -0.8202514134793627 0.0
C C -0.7747382528592854 1.4662096189724116 -0.8167573268066766 0.0
H H -0.7946682528592854 1.4578696189724116 -0.8857973268066766 0.0
C C -0.7318548305697902 1.428874717900043 -0.7461260764608736 0.0
H H -0.7546948305697903 1.390744717900043 -0.7590660764608735 0.0
C C -0.7020937921949775 1.4343104614528308 -0.6666986557831146 0.0
C C -0.7071633626754922 1.4957199253063111 -0.6264584945009087 0.0
C C -0.6349348972493531 1.5095197596424614 -0.5284099266343776 0.0
H H -0.6134848972493533 1.5480897596424614 -0.5170499266343777 0.0
C C -0.589058989163719 1.467564088472197 -0.467929689089459 0.0
H H -0.5626889891637192 1.4805240884721969 -0.40335968908945896 0.0
C C -0.5994921270145945 1.4134217238153322 -0.4758892016691612 0.0
H H -0.5672221270145945 1.3851817238153323 -0.4334292016691612 0.0
C C -0.6329813267950504 1.4051675500899687 -0.5844768186509501 0.0
C C -0.5816693769766467 1.2986160006404748 -0.6335008723844804 0.0
C C -0.7561642781897447 1.3104034708365502 -0.5888499255086422 0.0
C C -0.7700141357206172 1.2528258548408906 -0.6039635613585921 0.0
C C -0.8784455094530662 1.2243317745035849 -0.5965848222955251 0.0
H H -0.9327755094530661 1.2448817745035847 -0.5638048222955251 0.0
C C -0.9058363909322137 1.1781107129760162 -0.6114643655966668 0.0
H H -0.9752663909322136 1.1659407129760162 -0.6211743655966667 0.0
C C -0.8024265986669434 1.1348140895306327 -0.62105585760243 0.0
C C -0.7084663818857339 1.1704184080693436 -0.6684187030674712 0.0
C C -0.6933257771574748 1.2177876018724063 -0.6364026364476959 0.0
C C -0.6196486699142011 1.2439688510573208 -0.6425648079613056 0.0
C C -0.5181577232064748 1.2142726676144433 -0.650267729380263 0.0
H H -0.4505077232064747 1.2296426676144434 -0.657407729380263 0.0
C C -0.5568018571041297 1.1516782901902831 -0.6964511267212181 0.0
H H -0.5039318571041297 1.127438290190283 -0.7229811267212182 0.0
C C -0.611932579688118 1.1297986182683253 -0.6650694987144002 0.0
C C -0.6314287469548747 1.0514211983566748 -0.6689615445285134 0.0
C C -0.7964569453583086 1.0768054760128936 -0.6470066742186046 0.0
C C -0.7499031614205298 0.9750444429417482 -0.6974313565465625 0.0
C C -0.8015153263335896 0.9752350081751779 -0.8325506377565746 0.0
H H -0.8109353263335896 1.0084850081751782 -0.8740606377565746 0.0
C C -0.8413744619355399 0.9108805256819168 -0.8607068486317537 0.0
H H -0.8810574619355398 0.9034905256819168 -0.9210908486317536 0.0
C C -0.811904862585055 0.8561584566393152 -0.7847584682516484 0.0
H H -0.798214862585055 0.8174984566393153 -0.8042484682516483 0.0
C C -0.7757969323478667 0.8908736724945123 -0.6755415016549942 0.0
C C -0.7366288429502641 0.9359387771172583 -0.6433776682285335 0.0
C C -0.6941517642483725 0.9590418208344843 -0.5322514621022768 0.0
H H -0.6848817642483727 0.9977018208344843 -0.5107814621022767 0.0
C C -0.6684897312013073 0.913411163106403 -0.4867926931149792 0.0
H H -0.6288297312013073 0.9177711631064029 -0.4254326931149792 0.0
C C -0.7022802813202313 0.864607272903513 -0.51974724318815 0.0
H H -0.6981902813202312 0.8361472729035131 -0.46686724318815004 0.0
N N -0.7225528004858718 1.523008879015837 -0.6974767290536078 0.0
N N -0.6907273980886512 1.3274850090653036 -0.6118488473014823 0.0
N N -0.7511849165050782 1.034076931270348 -0.675101239902225 0.0
N N -0.747249340123615 0.8361622008655915 -0.5986761825898934 0.0
O O -0.5785349933025499 1.6532764933924275 -0.6374948998173651 0.0
O O -0.5872144651070929 1.7320225959724507 -0.6344631287479727 0.0
O O -0.7416531190721972 1.62787436365044 -0.5000931837145093 0.0
O O -0.7543356978503938 1.7318914046337173 -0.4939521665640741 0.0
O O -0.725545859232935 1.6343003163477703 -0.808508349676177 0.0
O O -0.727474957249841 1.7514534596063505 -0.7962188937832664 0.0
O O -0.8836738094367802 1.6347930851733967 -0.6867877273089151 0.0
O O -0.8937020740059268 1.7310368100424014 -0.6391297976107052 0.0
O O -0.8311727742517571 1.3464808481409263 -0.5611080621240914 0.0
O O -0.49545045944243565 1.3265558370401214 -0.643219765060859 0.0
O O -0.9237420874034117 1.048530332790124 -0.6543427521446276 0.0
O O -0.5694948936822589 1.0226289056243836 -0.7239122839870117 0.0
Zn Zn -0.7586646855303837 1.7497774393850767 -0.6243516949324889 0.0
Zn Zn -0.7460195225843136 1.6267186360635313 -0.6494658401656795 0.0
