_cell_length_a 12.935
_cell_length_b 23.242012
_cell_length_c 12.93505
_cell_angle_alpha 90.0
_cell_angle_beta 90.0
_cell_angle_gamma 90.0
_symmetry_space_group_name_H-M         'P 1'
_symmetry_Int_Tables_number            1
loop_
_symmetry_equiv_pos_as_xyz
   'x, y, z'
                         
loop_
_atom_site_label
_atom_site_type_symbol
_atom_site_fract_x 
_atom_site_fract_y
_atom_site_fract_z
_atom_site_charge
C C 0.5471007771622545 1.188439964483403 0.6259546362240127 0.0
C C 0.4354536092051876 1.1890963617102845 0.6266179033948006 0.0
C C 0.3774306382756006 1.1542089795032628 0.6393725815749381 0.0
H H 0.4107806382756006 1.1177789795032629 0.6368225815749382 0.0
C C 0.2716584976768256 1.14837411689773 0.6336676296460468 0.0
C C 0.22249614195699555 1.2201774470109232 0.670797137118214 0.0
C C 0.301027555727845 1.271674716981063 0.6728700695711152 0.0
H H 0.270777555727845 1.3088447169810629 0.6753300695711152 0.0
C C 0.369365432148319 1.2614701268596125 0.6628684766988084 0.0
H H 0.414615432148319 1.2935401268596125 0.6615184766988084 0.0
C C 0.20666991070080867 1.1102432046703008 0.650208757833836 0.0
H H 0.2330099107008086 1.0724132046703008 0.6421487578338362 0.0
C C 0.07622098687066925 1.1140272955248605 0.6462478961967761 0.0
H H 0.03367098687066927 1.0811872955248607 0.6569978961967762 0.0
C C 0.04420014494378484 1.1751628977783022 0.6660602549489556 0.0
C C 0.10359833999635985 1.2170484548578664 0.6423488115081504 0.0
H H 0.07614833999635987 1.2549184548578665 0.6400988115081502 0.0
C C 0.7700922563738682 1.1695712087418866 0.46926461087270077 0.0
C C 0.7268501393529783 1.202301234562546 0.8365405941871039 0.0
C C 0.7373692353549425 1.2103479637265493 0.9481480223100427 0.0
C C 0.7523230936787854 1.1576656795714075 1.0271386645081089 0.0
H H 0.7537730936787852 1.1198356795714075 0.9991886645081088 0.0
C C 0.7492547223043657 1.1622904151372133 1.1093780954312102 0.0
C C 0.7463066878118246 1.2052466463096636 1.1516969667396926 0.0
C C 0.7316799969456496 1.2690361402369479 1.1081539558223994 0.0
H H 0.7499299969456497 1.305616140236948 1.1350039558223994 0.0
C C 0.72166349164008 1.2509565057322323 1.0117433479794158 0.0
H H 0.69441349164008 1.2838265057322322 0.9776933479794157 0.0
C C 0.735623945125887 1.1038899680017626 1.1789321421000825 0.0
H H 0.747663945125887 1.0675599680017627 1.1474821421000825 0.0
C C 0.7475637173462759 1.1057067110651653 1.3183614780966422 0.0
H H 0.7457937173462759 1.0719767110651655 1.3599014780966423 0.0
C C 0.7527016220969468 1.1708919773334296 1.3389010867316604 0.0
C C 0.7467076605335072 1.2121330325131991 1.30406494077916 0.0
H H 0.7604576605335072 1.248203032513199 1.33572494077916 0.0
C C 0.9467240541804983 1.1743188500955548 0.6574951296793504 0.0
C C 0.7613955818585898 1.0127278955860297 0.7722151757401532 0.0
H H 0.7856355818585897 1.04269789558603 0.8157551757401532 0.0
C C 0.7721289156402109 0.9566996901626271 0.8100026690801784 0.0
H H 0.7920589156402109 0.948359690162627 0.8790426690801785 0.0
C C 0.7322829951786444 0.9271251629837072 0.7522087889527398 0.0
H H 0.7551229951786446 0.8889951629837073 0.7651487889527397 0.0
C C 0.6793147462489657 0.9274214871343135 0.6477974695472947 0.0
C C 0.6849404581955192 0.9957489893174939 0.6120793554323578 0.0
C C 0.6492950159731666 1.0129075412371245 0.5183749994614244 0.0
H H 0.6278450159731669 1.0514775412371244 0.5070149994614245 0.0
C C 0.6006128996778789 0.9662620441984706 0.4590314600127667 0.0
H H 0.5742428996778791 0.9792220441984707 0.39446146001276666 0.0
C C 0.5880230717865559 0.9180685727015393 0.5062007218515765 0.0
H H 0.5557530717865559 0.8898285727015391 0.46374072185157644 0.0
C C 0.6660518481228929 0.8907995210844605 0.5824930121932773 0.0
C C 0.5827219796058908 0.7985370061139652 0.6333692138444191 0.0
C C 0.7732488705549627 0.8086774205072932 0.597468179228011 0.0
C C 0.7875930581910433 0.746348548578876 0.5859192983173651 0.0
C C 0.8832883646797038 0.73476500094881 0.5914096421782101 0.0
H H 0.9376183646797037 0.7553150009488099 0.5586296421782101 0.0
C C 0.8779732470100641 0.6679949878765776 0.6224394322121933 0.0
H H 0.9474032470100641 0.6558249878765776 0.6321494322121933 0.0
C C 0.8080898781185059 0.6445048341770111 0.631020233292605 0.0
C C 0.7136035463378488 0.6649912477206165 0.6459734219453569 0.0
C C 0.7006021337488462 0.7300927109955584 0.6444301973574715 0.0
C C 0.5905729340536102 0.7373330207493023 0.643072032386198 0.0
C C 0.5154230081041219 0.7125459531895614 0.6497347546764409 0.0
H H 0.4477730081041219 0.7279159531895614 0.656874754676441 0.0
C C 0.535894164584044 0.6496743197737437 0.6903060363766189 0.0
H H 0.483024164584044 0.6254343197737436 0.7168360363766191 0.0
C C 0.6011618005106998 0.6322095732387791 0.6562207498342906 0.0
C C 0.6464513617541682 0.558026233569749 0.6764944163285668 0.0
C C 0.8050370599497343 0.5687863208913374 0.6422321109615765 0.0
C C 0.7588476610051886 0.48517989688461355 0.6977576199559088 0.0
C C 0.8164136783608625 0.4620066064409367 0.8134999815957152 0.0
H H 0.8258336783608625 0.4952566064409367 0.8550099815957154 0.0
C C 0.8392662911152694 0.40391303586706817 0.8853337970802366 0.0
H H 0.8789492911152693 0.3965230358670681 0.9457177970802365 0.0
C C 0.816755509647971 0.3618172701406311 0.7668318527213395 0.0
H H 0.803065509647971 0.3231572701406311 0.7863218527213394 0.0
C C 0.7892440301390146 0.37644332376514444 0.653059173527788 0.0
C C 0.743076158862014 0.4370821032159646 0.634002620612592 0.0
C C 0.7130890027951546 0.45121501170637174 0.5397070983752136 0.0
H H 0.7038190027951546 0.4898750117063717 0.5182370983752135 0.0
C C 0.6695313268377475 0.4091095262123564 0.4765651112258037 0.0
H H 0.6298713268377475 0.41346952621235644 0.4152051112258037 0.0
C C 0.6975306774176518 0.3546956864610376 0.5051620942906369 0.0
H H 0.6934406774176517 0.3262356864610376 0.45228209429063687 0.0
N N 0.7198926506580293 1.0402128479387445 0.6921321551586889 0.0
N N 0.6697156852200623 0.8365708001203989 0.6077028881889808 0.0
N N 0.7545542905067386 0.5324254045155703 0.6807594646981109 0.0
N N 0.7185244735799342 0.3368416002367657 0.6181538041877364 0.0
O O 0.5673727125759229 1.1335302916751828 0.6357225154972241 0.0
O O 0.5895195291355682 1.2364830280658765 0.6010902181369634 0.0
O O 0.7476076982158428 1.1335476014114094 0.4991226895761676 0.0
O O 0.7491152652310462 1.2217595009965823 0.48974094836613064 0.0
O O 0.7378696215136559 1.1482518926974687 0.7996097423200506 0.0
O O 0.7192210602690392 1.2400949148581852 0.8039660077542932 0.0
O O 0.8908512303818669 1.1367518794992995 0.6622514221045972 0.0
O O 0.8851438155715929 1.2263637411377686 0.6631262593081518 0.0
O O 0.8448029664384263 0.8433871198657754 0.5556504701727863 0.0
O O 0.512758233466126 0.8145249866055563 0.6454526243549364 0.0
O O 0.9263238331512429 0.56043304630477 0.6735313058213018 0.0
O O 0.5660924734849515 0.5173835985658533 0.7075031737397628 0.0
Zn Zn 0.7484393824473683 1.2509661699522296 0.6364830993894275 0.0
Zn Zn 0.733281953949605 1.122341137221043 0.6612619387474674 0.0
C C -0.553328277185979 1.6824371528119277 -0.6323225677340698 0.0
C C -0.4072170190637309 1.6983412495917432 -0.62508012903088 0.0
C C -0.37442090099267883 1.6425780370749608 -0.6385824935922523 0.0
H H -0.4077709009926788 1.6061480370749608 -0.6360324935922523 0.0
C C -0.23718492804048558 1.6481998259513353 -0.6417766777462611 0.0
C C -0.20374981208264703 1.7043557789590924 -0.6523911902626367 0.0
C C -0.2889047911758913 1.7685584742146965 -0.6467264743402021 0.0
H H -0.25865479117589135 1.8057284742146962 -0.6491864743402023 0.0
C C -0.38165050884413576 1.7647423167393275 -0.6529771470504591 0.0
H H -0.4269005088441358 1.7968123167393275 -0.6516271470504591 0.0
C C -0.18497524969027151 1.6124416232471566 -0.642998938763469 0.0
H H -0.2113152496902715 1.5746116232471565 -0.6349389387634692 0.0
C C -0.10973746584786556 1.6277199648347456 -0.6532405456113716 0.0
H H -0.06718746584786557 1.5948799648347456 -0.6639905456113715 0.0
C C -0.043648084290874994 1.674896029371363 -0.6445000247687594 0.0
C C -0.1220645065399478 1.714865464800587 -0.6521593974217141 0.0
H H -0.09461450653994781 1.7527354648005868 -0.649909397421714 0.0
C C -0.7487068913864021 1.6843433525277498 -0.45827521211135575 0.0
C C -0.745024685384832 1.6918097907138023 -0.8593575122652671 0.0
C C -0.7273758267895885 1.6961364806170247 -0.9360486684844517 0.0
C C -0.7221332520702937 1.6480490476549927 -1.0187106857543975 0.0
H H -0.7235832520702936 1.6102190476549927 -0.9907606857543977 0.0
C C -0.7239291778897786 1.660092819756117 -1.127101954323737 0.0
C C -0.7358692624414437 1.719131361410571 -1.152911784231934 0.0
C C -0.74098933232372 1.7701012826046645 -1.0956761379477744 0.0
H H -0.7592393323237201 1.8066812826046645 -1.1225261379477744 0.0
C C -0.7214591637580416 1.7515295297933207 -1.0057191370885457 0.0
H H -0.6942091637580416 1.7843995297933208 -0.9716691370885456 0.0
C C -0.740508053281339 1.6042926158810384 -1.190277681787325 0.0
H H -0.752548053281339 1.5679626158810382 -1.158827681787325 0.0
C C -0.7418395078922079 1.6098879516352835 -1.3099980588336129 0.0
H H -0.7400695078922078 1.5761579516352835 -1.3515380588336128 0.0
C C -0.7669639038815145 1.661746005753749 -1.3401346233467322 0.0
C C -0.7700537738036637 1.7066511684352836 -1.2829498686668093 0.0
H H -0.7838037738036637 1.7427211684352835 -1.3146098686668093 0.0
C C -0.9173110649353207 1.6831192852626262 -0.6601678641400883 0.0
C C -0.7653868169223519 1.5057775050269735 -0.7981121474593976 0.0
H H -0.789626816922352 1.5357475050269738 -0.8416521474593976 0.0
C C -0.7684266737622856 1.4704265048394327 -0.8173613978401848 0.0
H H -0.7883566737622855 1.4620865048394325 -0.8864013978401849 0.0
C C -0.7669726615845937 1.420202662323355 -0.7326710067554942 0.0
H H -0.7898126615845938 1.3820726623233552 -0.7456110067554942 0.0
C C -0.7009817449138721 1.4381703569612319 -0.634927060935791 0.0
C C -0.6822633676872191 1.5036284828805608 -0.6148419248627227 0.0
C C -0.6172753247275375 1.5141652928550728 -0.5527456625591045 0.0
H H -0.5958253247275377 1.552735292855073 -0.5413856625591046 0.0
C C -0.5805382920206441 1.4705826151429784 -0.46165824434580877 0.0
H H -0.5541682920206442 1.4835426151429785 -0.3970882443458087 0.0
C C -0.5976713001079184 1.4148448436034813 -0.4837083053308804 0.0
H H -0.5654013001079183 1.3866048436034815 -0.4412483053308804 0.0
C C -0.6451428033218743 1.3998561458576857 -0.5724311780234133 0.0
C C -0.5887856034396299 1.3026832544608724 -0.6360018006799398 0.0
C C -0.7554213556594587 1.3112999850986873 -0.5761439055056256 0.0
C C -0.774870333071788 1.2449388880350158 -0.6091392987141393 0.0
C C -0.8681602162181782 1.231482820992211 -0.5761911736460232 0.0
H H -0.9224902162181781 1.2520328209922107 -0.5434111736460232 0.0
C C -0.8701717532142017 1.173121605764349 -0.6267785661851901 0.0
H H -0.9396017532142017 1.160951605764349 -0.63648856618519 0.0
C C -0.8004394875139204 1.135575258712738 -0.6384855796723503 0.0
C C -0.7165735334540081 1.1639064831835353 -0.6587419205165267 0.0
C C -0.6970770782621297 1.215042200045551 -0.6073737996825057 0.0
C C -0.6184305266357862 1.2482831150259788 -0.6210820131398426 0.0
C C -0.5255264929602069 1.2098307446678744 -0.6703642657016571 0.0
H H -0.4578764929602069 1.2252007446678745 -0.6775042657016571 0.0
C C -0.5258202027439998 1.154082134498134 -0.6779994706287993 0.0
H H -0.4729502027439997 1.1298421344981342 -0.7045294706287993 0.0
C C -0.631073343221285 1.128455106565108 -0.6843428962839226 0.0
C C -0.6334302514436966 1.0509960192529106 -0.678313413493515 0.0
C C -0.8215477997859335 1.0785330443930174 -0.6481050721055546 0.0
C C -0.7485461057480386 0.97323924562053 -0.703366639397885 0.0
C C -0.8027402540545454 0.9647036455348076 -0.8136246422348457 0.0
H H -0.8121602540545454 0.9979536455348079 -0.8551346422348458 0.0
C C -0.8510270638117773 0.9018154096331881 -0.8781366067859235 0.0
H H -0.8907100638117771 0.8944254096331881 -0.9385206067859234 0.0
C C -0.7944347555821848 0.8497990193293793 -0.7740828516681524 0.0
H H -0.7807447555821848 0.8111390193293794 -0.7935728516681523 0.0
C C -0.7771615407481461 0.8800072067452835 -0.6671813430502552 0.0
C C -0.7437746140392377 0.9316298822310903 -0.6377672751069997 0.0
C C -0.6953889915042252 0.9522885775239096 -0.5309663354251832 0.0
H H -0.6861189915042253 0.9909485775239096 -0.5094963354251832 0.0
C C -0.6487315772440011 0.9059189002257129 -0.4830273048999219 0.0
H H -0.609071577244001 0.9102789002257128 -0.42166730489992194 0.0
C C -0.6787431732913759 0.8584249440010517 -0.4961571357319887 0.0
H H -0.6746531732913758 0.8299649440010518 -0.4432771357319887 0.0
N N -0.7292909293638674 1.5335375221296315 -0.7006468419654026 0.0
N N -0.6871974731965693 1.3373073038775445 -0.581566905282675 0.0
N N -0.7375333199700445 1.045408852446511 -0.6884995308977074 0.0
N N -0.7378940450928316 0.8454313014688595 -0.5939288244464035 0.0
O O -0.570738442981611 1.654325665417449 -0.6233294862046946 0.0
O O -0.5919066416545083 1.7348706400566092 -0.6031580878376706 0.0
O O -0.7380874547168115 1.6289407422277338 -0.5060949036835994 0.0
O O -0.7533069907810369 1.7181870368214291 -0.5027896492514967 0.0
O O -0.7318803603430567 1.6508899797940764 -0.7908688776852388 0.0
O O -0.736134824098846 1.7373874307598736 -0.7772893691401653 0.0
O O -0.8816604720441299 1.637024267871378 -0.6784769745684119 0.0
O O -0.8930403429315028 1.7374310565628186 -0.6692820121051606 0.0
O O -0.8435465745045695 1.340804269401447 -0.5441798081740968 0.0
O O -0.49998860124232625 1.316560545176355 -0.6342678184369295 0.0
O O -0.9296415485563568 1.053268713538763 -0.6669759241622135 0.0
O O -0.5791717877668191 1.031030950351467 -0.7297446848612161 0.0
Zn Zn -0.7469286237305112 1.7606863894670814 -0.65134771032173 0.0
Zn Zn -0.7152940544299322 1.6271658385217644 -0.6650847731193461 0.0
