_cell_length_a 12.935
_cell_length_b 23.242012
_cell_length_c 12.93505
_cell_angle_alpha 90.0
_cell_angle_beta 90.0
_cell_angle_gamma 90.0
_symmetry_space_group_name_H-M         'P 1'
_symmetry_Int_Tables_number            1
loop_
_symmetry_equiv_pos_as_xyz
   'x, y, z'
                         
loop_
_atom_site_label
_atom_site_type_symbol
_atom_site_fract_x 
_atom_site_fract_y
_atom_site_fract_z
_atom_site_charge
C C 0.5615684823907046 1.1886841937366601 0.6270586922445429 0.0
C C 0.4410032785210537 1.201476352799405 0.6265477214794946 0.0
C C 0.36299937975071855 1.1464363069798398 0.6307707710814792 0.0
H H 0.3963493797507186 1.1100063069798398 0.6282207710814791 0.0
C C 0.24438645132334008 1.1542837168506863 0.6338208932056193 0.0
C C 0.20806288196448638 1.2209661610654214 0.647963366185395 0.0
C C 0.28767740333064684 1.2609336558938105 0.6649259712248433 0.0
H H 0.2574274033306468 1.2981036558938104 0.6673859712248433 0.0
C C 0.37407491392840775 1.2608620300487872 0.6463039220517521 0.0
H H 0.41932491392840765 1.292932030048787 0.6449539220517522 0.0
C C 0.19359259360014525 1.114510264182749 0.6370940277656753 0.0
H H 0.21993259360014517 1.0766802641827486 0.6290340277656754 0.0
C C 0.10855400532035994 1.1221035250062148 0.6687431424882545 0.0
H H 0.06600400532035997 1.0892635250062148 0.6794931424882545 0.0
C C 0.04014274730557349 1.176900442254568 0.6665223651747313 0.0
C C 0.11898367154175091 1.2226530689720578 0.6639794667656574 0.0
H H 0.09153367154175092 1.260523068972058 0.6617294667656574 0.0
C C 0.7533932649120572 1.1804174936799818 0.45691515895229984 0.0
C C 0.7213939919071701 1.1922354173929355 0.8629822298370253 0.0
C C 0.7409823291982632 1.1957312875419732 0.941653594812093 0.0
C C 0.7498685403528854 1.1523974003161466 1.0143386213872032 0.0
H H 0.7513185403528853 1.1145674003161465 0.9863886213872034 0.0
C C 0.7516788382469076 1.1499946237646328 1.1189014247876896 0.0
C C 0.7487558546044926 1.2198447996184425 1.1740228707712872 0.0
C C 0.7426256870799787 1.2540351165155434 1.0980807461414397 0.0
H H 0.7608756870799788 1.2906151165155435 1.1249307461414397 0.0
C C 0.7359325073802222 1.2508075843521986 1.0248692457106423 0.0
H H 0.7086825073802223 1.2836775843521988 0.9908192457106423 0.0
C C 0.7564732176957935 1.1043413271296618 1.186321315715155 0.0
H H 0.7685132176957935 1.0680113271296618 1.1548713157151551 0.0
C C 0.7512927781643667 1.113477350358894 1.2993074834122447 0.0
H H 0.7495227781643665 1.079747350358894 1.3408474834122448 0.0
C C 0.7650638898636742 1.1652051442030198 1.3492840383184743 0.0
C C 0.7501504118554233 1.2131560037087348 1.2862977550290193 0.0
H H 0.7639004118554232 1.2492260037087346 1.3179577550290194 0.0
C C 0.9398117395616096 1.1802762727774423 0.660339637983133 0.0
C C 0.7585103537466699 1.014964297534886 0.7718554751781893 0.0
H H 0.7827503537466699 1.0449342975348863 0.8153954751781893 0.0
C C 0.7697774724887902 0.9644757138435218 0.8305899014083094 0.0
H H 0.7897074724887903 0.9561357138435217 0.8996299014083095 0.0
C C 0.7461035065397988 0.9134405776486563 0.753760627995823 0.0
H H 0.768943506539799 0.8753105776486563 0.7667006279958231 0.0
C C 0.6906080474116941 0.9299530563741162 0.6519475634693209 0.0
C C 0.7041597212094506 1.0095498350886765 0.626307620284957 0.0
C C 0.6421250835132234 1.0092032764524967 0.5361237290993541 0.0
H H 0.6206750835132234 1.0477732764524967 0.5247637290993542 0.0
C C 0.6044357208612965 0.9691953367979286 0.4714923651649705 0.0
H H 0.5780657208612966 0.9821553367979285 0.4069223651649705 0.0
C C 0.5858802244698443 0.914553436552205 0.4810547043646581 0.0
H H 0.5536102244698443 0.8863134365522048 0.4385947043646581 0.0
C C 0.6617586441148825 0.8933230523293682 0.579721280039726 0.0
C C 0.5906174910356748 0.7999435108226468 0.6322845862869659 0.0
C C 0.7538094468092666 0.8151526035005021 0.5823503351632368 0.0
C C 0.7695304330556287 0.7498404150831 0.5982835903680848 0.0
C C 0.87927927324845 0.7195839255059305 0.6010344821310457 0.0
H H 0.9336092732484499 0.7401339255059305 0.5682544821310457 0.0
C C 0.9002951351865648 0.6778563298704725 0.6117793696785752 0.0
H H 0.9697251351865648 0.6656863298704725 0.621489369678575 0.0
C C 0.8194745652082186 0.6382296628930372 0.6361568134807244 0.0
C C 0.712757417664966 0.6659842463754234 0.6661843034977368 0.0
C C 0.7076218554790935 0.7177147443427284 0.6244219276108758 0.0
C C 0.6071537800226129 0.736457594001977 0.648706650289831 0.0
C C 0.5175406297080604 0.7128246840985747 0.6699138506966754 0.0
H H 0.4498906297080603 0.7281946840985747 0.6770538506966755 0.0
C C 0.5261565554507973 0.6566308740722336 0.6790150474597613 0.0
H H 0.47328655545079734 0.6323908740722336 0.7055450474597614 0.0
C C 0.6081408174979669 0.621925649355419 0.6695396560506368 0.0
C C 0.6327914036883903 0.5503600767262146 0.6721590159498811 0.0
C C 0.819024908915123 0.5677906517844361 0.6587083115501948 0.0
C C 0.7783480053739033 0.47200379483738225 0.7086367178187739 0.0
C C 0.8115635549416134 0.4612739890909876 0.8193140735814138 0.0
H H 0.8209835549416135 0.49452398909098766 0.860824073581414 0.0
C C 0.8589744997729679 0.4054979095995626 0.8765064618967283 0.0
H H 0.8986574997729678 0.3981079095995626 0.9368904618967283 0.0
C C 0.8152888700038311 0.35222425689746 0.7869042368613244 0.0
H H 0.8015988700038311 0.3135642568974601 0.8063942368613243 0.0
C C 0.7839864376506798 0.3767902647820845 0.652807927909838 0.0
C C 0.7438541956423824 0.4404738672727702 0.6389179891665073 0.0
C C 0.6981890563300669 0.45364935706213017 0.5291954279393091 0.0
H H 0.6889190563300669 0.49230935706213014 0.507725427939309 0.0
C C 0.655349455473923 0.4013158435949807 0.49647180776473937 0.0
H H 0.615689455473923 0.4056758435949807 0.4351118077647394 0.0
C C 0.6917973961388552 0.35168800211956497 0.511098481138151 0.0
H H 0.687707396138855 0.323228002119565 0.45821848113815106 0.0
N N 0.7226705302294765 1.03879868640114 0.6881243774471332 0.0
N N 0.6787435357785246 0.834564620431081 0.5835856136965886 0.0
N N 0.7544104917458194 0.5498526664365843 0.6916603160533588 0.0
N N 0.7216894907163354 0.32904663992123384 0.6128436037991613 0.0
O O 0.593831197341564 1.1371146355383401 0.6480887577160498 0.0
O O 0.5697617021022984 1.2405211615167873 0.6232030767675832 0.0
O O 0.7526950431757137 1.1372420418988995 0.504187875076447 0.0
O O 0.7380357618752413 1.2209579465666178 0.4920880846224308 0.0
O O 0.7267666093981202 1.1390524032468503 0.8103013727079025 0.0
O O 0.7450084383764064 1.2413788383036737 0.7826381527821323 0.0
O O 0.8945250429501937 1.1296996467297649 0.6623003066540774 0.0
O O 0.9024849160439294 1.2269036602770664 0.6368568298972499 0.0
O O 0.8526044752311539 0.8454710929417562 0.5508754284224284 0.0
O O 0.5123958502559309 0.8188416984040917 0.6514789971661176 0.0
O O 0.9369089525137141 0.5491760970096042 0.6520327351038049 0.0
O O 0.5705546267828938 0.520661988594926 0.7080175184510711 0.0
Zn Zn 0.7547558470585047 1.2451324399268324 0.6332693811549942 0.0
Zn Zn 0.7318841618174791 1.1149850622367548 0.6639676697718685 0.0
C C -0.5365206073905404 1.6899468232286805 -0.6266474789317139 0.0
C C -0.41987126353968107 1.6909547177830315 -0.6522018902029528 0.0
C C -0.38799867623040446 1.6523250028904222 -0.6496765350920911 0.0
H H -0.4213486762304045 1.615895002890422 -0.6471265350920912 0.0
C C -0.2392995373800466 1.6575842684491455 -0.6320593970526339 0.0
C C -0.22559489028413035 1.7106993415314642 -0.6497801260693598 0.0
C C -0.2889853034320205 1.7748340386539656 -0.6617176051415612 0.0
H H -0.2587353034320205 1.8120040386539655 -0.6641776051415612 0.0
C C -0.39120122753336634 1.7689235267492738 -0.6554431636643435 0.0
H H -0.4364512275333663 1.8009935267492738 -0.6540931636643436 0.0
C C -0.1953824869251658 1.6015823076127198 -0.6384393826862339 0.0
H H -0.22172248692516575 1.5637523076127198 -0.630379382686234 0.0
C C -0.0888656988679297 1.6238116633772322 -0.6515358206646488 0.0
H H -0.0463156988679297 1.5909716633772322 -0.6622858206646488 0.0
C C -0.05559593373275075 1.6788615027265272 -0.6594705959698607 0.0
C C -0.10739720125531019 1.7114834572147652 -0.6505904048813069 0.0
H H -0.0799472012553102 1.749353457214765 -0.6483404048813068 0.0
C C -0.750971640309294 1.6791328581013634 -0.4748588203122171 0.0
C C -0.7286905479827697 1.7014755496419067 -0.8534709377889382 0.0
C C -0.7404508626570359 1.7012688237076234 -0.9380378065223283 0.0
C C -0.732514827287903 1.6495782959209973 -1.0166313034712053 0.0
H H -0.7339648272879028 1.6117482959209974 -0.9886813034712055 0.0
C C -0.7319048454402978 1.6489309600674555 -1.1063273689169086 0.0
C C -0.7575565799587376 1.7081457844454289 -1.1585474006702319 0.0
C C -0.7479346457426137 1.762524969556532 -1.1218819500102883 0.0
H H -0.7661846457426138 1.799104969556532 -1.1487319500102884 0.0
C C -0.7208553379869774 1.7584245929117686 -1.0081183266566198 0.0
H H -0.6936053379869775 1.7912945929117687 -0.9740683266566198 0.0
C C -0.7381871644427097 1.6066859100209565 -1.198572187412408 0.0
H H -0.7502271644427096 1.5703559100209563 -1.1671221874124078 0.0
C C -0.7426177842833794 1.6149447171772822 -1.2936457135645438 0.0
H H -0.7408477842833794 1.5812147171772821 -1.335185713564544 0.0
C C -0.7582485298299925 1.6705718115957509 -1.3297948297854207 0.0
C C -0.771443109745498 1.7236794901434758 -1.2971605714624972 0.0
H H -0.785193109745498 1.7597494901434756 -1.328820571462497 0.0
C C -0.939019002565827 1.6719499477111972 -0.6557381385381009 0.0
C C -0.7579055222362111 1.5196676463230339 -0.7755971609060982 0.0
H H -0.782145522236211 1.549637646323034 -0.8191371609060982 0.0
C C -0.7630886664496475 1.4611229837054809 -0.8194515099203937 0.0
H H -0.7830186664496475 1.4527829837054806 -0.8884915099203938 0.0
C C -0.7443054831579609 1.416190461106496 -0.7375898622519655 0.0
H H -0.767145483157961 1.3780604611064962 -0.7505298622519655 0.0
C C -0.6963892622440437 1.4378326476041132 -0.6543307144860782 0.0
C C -0.685747069830635 1.5068672356352109 -0.6348408495855491 0.0
C C -0.6317610009552346 1.5171068779035828 -0.5500182642639194 0.0
H H -0.6103110009552346 1.555676877903583 -0.5386582642639195 0.0
C C -0.5996335327412612 1.4681635248184184 -0.4621260526045816 0.0
H H -0.5732635327412613 1.4811235248184185 -0.3975560526045816 0.0
C C -0.5899705934755266 1.4039204375510925 -0.4879316811228293 0.0
H H -0.5577005934755266 1.375680437551093 -0.4454716811228293 0.0
C C -0.6600244745307585 1.3970705322454593 -0.566792032320428 0.0
C C -0.5750602036619831 1.3063766350623822 -0.6380487878779265 0.0
C C -0.752847601248748 1.3153784253748153 -0.576877093828617 0.0
C C -0.7731864012921916 1.2601028526228293 -0.613869846275607 0.0
C C -0.873827187727932 1.227112343464163 -0.5868185750532595 0.0
H H -0.9281571877279319 1.2476623434641627 -0.5540385750532595 0.0
C C -0.8873481413413417 1.1704408672653415 -0.6055313293210309 0.0
H H -0.9567781413413416 1.1582708672653415 -0.6152413293210308 0.0
C C -0.8242670858269101 1.1355960748188678 -0.630296725230773 0.0
C C -0.7279121438329372 1.158067636395199 -0.6583627645070188 0.0
C C -0.6894753885496328 1.220859621251902 -0.6327341483963747 0.0
C C -0.6146036497326491 1.2479689322818976 -0.6415737721064267 0.0
C C -0.5151970515442379 1.2079266810225782 -0.6517635193658033 0.0
H H -0.4475470515442378 1.2232966810225783 -0.6589035193658034 0.0
C C -0.5551395422106608 1.151759777885763 -0.6868058441488007 0.0
H H -0.5022695422106608 1.1275197778857629 -0.7133358441488009 0.0
C C -0.6073224659789241 1.1309589290204602 -0.6552242291974447 0.0
C C -0.6271735802496811 1.0647673362387167 -0.674465570332815 0.0
C C -0.8115091543910006 1.0651468010283158 -0.6480522423766434 0.0
C C -0.7787725578866393 0.9845792035844425 -0.7093653244220228 0.0
C C -0.8203391934268504 0.9714663752998769 -0.820765333892265 0.0
H H -0.8297591934268504 1.0047163752998771 -0.8622753338922652 0.0
C C -0.8458831749445871 0.9116363567472966 -0.8556073496823351 0.0
H H -0.885566174944587 0.9042463567472966 -0.915991349682335 0.0
C C -0.7942064917879397 0.8624156898520322 -0.7917397294044816 0.0
H H -0.7805164917879397 0.8237556898520323 -0.8112297294044815 0.0
C C -0.7922425475679253 0.8784625259759452 -0.667045920886329 0.0
C C -0.7537335886255468 0.9279829815240596 -0.6378085056487192 0.0
C C -0.6874308071440887 0.9414925373844816 -0.5449089985382013 0.0
H H -0.6781608071440888 0.9801525373844816 -0.5234389985382013 0.0
C C -0.6789523920561503 0.9074176762144115 -0.4815584703528195 0.0
H H -0.6392923920561503 0.9117776762144115 -0.42019847035281954 0.0
C C -0.6938460278443118 0.8585509521079016 -0.5236893333731836 0.0
H H -0.6897560278443117 0.8300909521079016 -0.4708093333731836 0.0
N N -0.7306479617833784 1.526566385261326 -0.6989827873608825 0.0
N N -0.6829073632801512 1.3369270748667688 -0.6034649757508617 0.0
N N -0.7340784526332922 1.0371779191813995 -0.6628290708757107 0.0
N N -0.7385402801244743 0.8322123307110666 -0.592520619704248 0.0
O O -0.5701580547065596 1.637171773286259 -0.6418914980686661 0.0
O O -0.5754133602828511 1.7368574052462096 -0.6194862736255352 0.0
O O -0.7560405082982765 1.6339125257499874 -0.5144527580452495 0.0
O O -0.7466707768561575 1.7247171273876467 -0.499679946146388 0.0
O O -0.7067178110041754 1.63792269470878 -0.8180175108649206 0.0
O O -0.7301709096206899 1.7421826632369481 -0.7814607502415589 0.0
O O -0.8691478527105059 1.6335939048751702 -0.6787653534577852 0.0
O O -0.8966579559557453 1.7371949128202597 -0.6476535179858398 0.0
O O -0.8383690525826604 1.3406575720028608 -0.5633805600480913 0.0
O O -0.5169782750950267 1.3239787734061634 -0.6504941978680789 0.0
O O -0.9142344926663307 1.0428120701899155 -0.6473573995407643 0.0
O O -0.5710237194840033 1.028703788284353 -0.7018870723860495 0.0
Zn Zn -0.7497078928518357 1.753578730763335 -0.650346434412175 0.0
Zn Zn -0.7419447663537302 1.6210712903954962 -0.6575754793053775 0.0
