_cell_length_a 12.935
_cell_length_b 23.242012
_cell_length_c 12.93505
_cell_angle_alpha 90.0
_cell_angle_beta 90.0
_cell_angle_gamma 90.0
_symmetry_space_group_name_H-M         'P 1'
_symmetry_Int_Tables_number            1
loop_
_symmetry_equiv_pos_as_xyz
   'x, y, z'
                         
loop_
_atom_site_label
_atom_site_type_symbol
_atom_site_fract_x 
_atom_site_fract_y
_atom_site_fract_z
_atom_site_charge
C C 0.5513171204414206 1.1952739811796356 0.6496401344284577 0.0
C C 0.4240300776938411 1.197268306150851 0.6189700218448196 0.0
C C 0.37152177629998323 1.1620005167888086 0.637098055264259 0.0
H H 0.4048717762999833 1.1255705167888086 0.634548055264259 0.0
C C 0.24484401082801044 1.1517392430135753 0.6323036607089563 0.0
C C 0.19686218240591236 1.2194010564998163 0.650550692739574 0.0
C C 0.2702831227523097 1.2618513378188188 0.6631118026265042 0.0
H H 0.24003312275230979 1.2990213378188187 0.6655718026265042 0.0
C C 0.38181949921882274 1.2695815266932189 0.6287145374124368 0.0
H H 0.4270694992188227 1.301651526693219 0.6273645374124368 0.0
C C 0.19187061528741317 1.1049480798301108 0.6468420084759373 0.0
H H 0.2182106152874131 1.0671180798301105 0.6387820084759375 0.0
C C 0.07945985845191353 1.1088694334216973 0.6604480318255141 0.0
H H 0.03690985845191355 1.0760294334216973 0.6711980318255142 0.0
C C 0.04827554023759221 1.1784698039650874 0.652244635393344 0.0
C C 0.09907730015400402 1.2297033153711792 0.671161411420161 0.0
H H 0.07162730015400404 1.2675733153711792 0.6689114114201609 0.0
C C 0.763549928791318 1.1705963307584297 0.4545306557386827 0.0
C C 0.7312260637572525 1.1982415241954487 0.868607878104937 0.0
C C 0.7439754318476073 1.1997614831628656 0.9276015069836099 0.0
C C 0.7331380392024709 1.1564778055486242 1.015142501174101 0.0
H H 0.7345880392024708 1.118647805548624 0.9871925011741012 0.0
C C 0.7399892346815238 1.158320736565367 1.111444868359534 0.0
C C 0.7268383555828133 1.2037320043608115 1.1637584043265308 0.0
C C 0.7408852934141789 1.2692350458537294 1.0879099152721354 0.0
H H 0.759135293414179 1.3058150458537294 1.1147599152721355 0.0
C C 0.7273330036633235 1.259572004301449 1.0181685998589378 0.0
H H 0.7000830036633235 1.2924420043014493 0.9841185998589378 0.0
C C 0.7382681176718388 1.1047987550660279 1.1896862942136148 0.0
H H 0.7503081176718387 1.068468755066028 1.1582362942136146 0.0
C C 0.7598284653996631 1.1095878791788742 1.3114771247001353 0.0
H H 0.758058465399663 1.0758578791788744 1.3530171247001352 0.0
C C 0.7379784590286697 1.1629748792252008 1.3225123703817503 0.0
C C 0.7600660505664076 1.2172734638415748 1.2965614835328434 0.0
H H 0.7738160505664077 1.2533434638415748 1.3282214835328434 0.0
C C 0.9348985191252006 1.1790664700527427 0.6528039246325963 0.0
C C 0.7463215084879913 1.01099708757448 0.7751602426364927 0.0
H H 0.7705615084879913 1.04096708757448 0.8187002426364928 0.0
C C 0.783406547568537 0.956101248829998 0.8271100664090192 0.0
H H 0.803336547568537 0.9477612488299979 0.8961500664090193 0.0
C C 0.7508855389895174 0.9113149867150518 0.7626382898167577 0.0
H H 0.7737255389895176 0.8731849867150518 0.7755782898167577 0.0
C C 0.6869170236350347 0.9339906614301854 0.6688331598650861 0.0
C C 0.7098375110427778 1.0098716635547345 0.618805198617436 0.0
C C 0.6163933129862337 1.0210466116922443 0.5303215946672305 0.0
H H 0.5949433129862337 1.0596166116922443 0.5189615946672305 0.0
C C 0.5982381628527094 0.9857104173498902 0.4852813543041211 0.0
H H 0.5718681628527096 0.9986704173498903 0.4207113543041211 0.0
C C 0.6090386712245309 0.9018700184999345 0.4780609974696676 0.0
H H 0.5767686712245309 0.8736300184999344 0.43560099746966763 0.0
C C 0.6432799628045252 0.8937729301426743 0.5652964390438097 0.0
C C 0.5870698894084333 0.810150404662012 0.6042752447510342 0.0
C C 0.7627079641158254 0.8106875215065265 0.5908435318641674 0.0
C C 0.7770191985357806 0.7465448742361817 0.586950245776612 0.0
C C 0.8553861118681877 0.7207238918192385 0.5739144087335539 0.0
H H 0.9097161118681876 0.7412738918192384 0.5411344087335539 0.0
C C 0.8850862564184339 0.6745033608671591 0.6256222590909476 0.0
H H 0.9545162564184336 0.6623333608671591 0.6353322590909475 0.0
C C 0.8050116191659704 0.6486053999644678 0.6535796660161473 0.0
C C 0.7308107836052233 0.6703672239329883 0.6457431702223153 0.0
C C 0.6978591661139241 0.7156665324860564 0.6401367704272962 0.0
C C 0.6042513476713356 0.7493574673854073 0.6197512025534873 0.0
C C 0.513734337311943 0.7065718312407049 0.6562825599938131 0.0
H H 0.4460843373119429 0.7219418312407049 0.6634225599938132 0.0
C C 0.5395452807618628 0.6445879469135666 0.6901397315293277 0.0
H H 0.4866752807618628 0.6203479469135665 0.7166697315293279 0.0
C C 0.6258751543672862 0.6301673560457786 0.6855908977172203 0.0
C C 0.6432284213205315 0.5533923573908395 0.6687716719697199 0.0
C C 0.8063945025382904 0.5815740795974038 0.6440556073121562 0.0
C C 0.7626684651937361 0.47105986814150086 0.7281606022461087 0.0
C C 0.8131650689279685 0.4690991369432175 0.8388407651022751 0.0
H H 0.8225850689279686 0.5023491369432176 0.8803507651022752 0.0
C C 0.8458127167764264 0.4089681963027976 0.8746633824818361 0.0
H H 0.8854957167764264 0.4015781963027976 0.9350473824818359 0.0
C C 0.7859302967541788 0.3579806885551573 0.7666122747702959 0.0
H H 0.7722402967541787 0.31932068855515733 0.7861022747702958 0.0
C C 0.7850409456012337 0.38679383700637177 0.6710524190292095 0.0
C C 0.749636043663556 0.44112012852928484 0.6249672670289471 0.0
C C 0.6831152931850145 0.4604390855976428 0.5359963037587724 0.0
H H 0.6738452931850145 0.49909908559764277 0.5145263037587724 0.0
C C 0.6790375390743488 0.40942104460233497 0.4621361517649791 0.0
H H 0.6393775390743488 0.413781044602335 0.4007761517649791 0.0
C C 0.6946475069516892 0.36198411690235066 0.5240309463997811 0.0
H H 0.690557506951689 0.3335241169023507 0.4711509463997811 0.0
N N 0.7390774960017756 1.0286504689285387 0.6992928517818774 0.0
N N 0.6563467259372197 0.835628279627513 0.5905644695524407 0.0
N N 0.7447268785036912 0.5439456849072222 0.6716267097189689 0.0
N N 0.7471342797909434 0.3245361431677009 0.5968085061957583 0.0
O O 0.5709959239555031 1.1530360640599424 0.6360479394642948 0.0
O O 0.5956420829692082 1.244332263165881 0.6045960613392797 0.0
O O 0.7350465668395237 1.1235551851861796 0.5040553516861007 0.0
O O 0.7508146928096361 1.2141263029959988 0.47333762210161406 0.0
O O 0.7341000807239854 1.1351058462657253 0.7905664672566288 0.0
O O 0.7474939829037841 1.2399240590005027 0.8042501443378521 0.0
O O 0.8652474360733602 1.1377106704723867 0.6598750035363041 0.0
O O 0.8844239408319531 1.2356243819964088 0.6563244250826126 0.0
O O 0.849424366189686 0.8470933395318397 0.5663709220941605 0.0
O O 0.5114701781958568 0.8155099231402657 0.6553030148649371 0.0
O O 0.9393412920189081 0.5469673682317873 0.6648363393714457 0.0
O O 0.5758055970026194 0.5237123028362884 0.7203753047057694 0.0
Zn Zn 0.7374758080719649 1.2524361595498008 0.6605881474068389 0.0
Zn Zn 0.744445377316705 1.1279957332892747 0.6785386330028096 0.0
C C -0.5412468406385552 1.6905815474843993 -0.6513416717642672 0.0
C C -0.43732369715150154 1.7075433035848009 -0.6260625465152739 0.0
C C -0.38244346511805616 1.6409411942275285 -0.6462330737210704 0.0
H H -0.41579346511805615 1.6045111942275285 -0.6436830737210705 0.0
C C -0.2508829747700791 1.6664855137337338 -0.6321560312198597 0.0
C C -0.22797497034824554 1.7176112897578384 -0.6725096350988315 0.0
C C -0.3005376200292315 1.7583999109496666 -0.6714827806485884 0.0
H H -0.2702876200292316 1.7955699109496666 -0.6739427806485884 0.0
C C -0.40338625279402124 1.764210273216383 -0.6672058773983481 0.0
H H -0.44863625279402125 1.796280273216383 -0.6658558773983482 0.0
C C -0.1955296498657247 1.6142307247177232 -0.6430886996839486 0.0
H H -0.22186964986572466 1.5764007247177234 -0.6350286996839487 0.0
C C -0.10990815362525151 1.615587139735873 -0.6496250744022933 0.0
H H -0.06735815362525154 1.582747139735873 -0.6603750744022933 0.0
C C -0.031571245783699686 1.6667940951750349 -0.681623779416196 0.0
C C -0.1130725158029543 1.7256549519728546 -0.6423313806700182 0.0
H H -0.08562251580295431 1.7635249519728546 -0.6400813806700181 0.0
C C -0.7613721684475653 1.6697884004678025 -0.469384417568958 0.0
C C -0.7379341201798211 1.695916103869565 -0.8393420170551563 0.0
C C -0.7267308955019061 1.706370099697651 -0.966899004109054 0.0
C C -0.7296745387897755 1.6509803112096308 -1.009889642346147 0.0
H H -0.7311245387897755 1.6131503112096308 -0.981939642346147 0.0
C C -0.7268791192084288 1.65367880605625 -1.1128271568099957 0.0
C C -0.7601989769799007 1.7107439406723264 -1.151599940955582 0.0
C C -0.7443663219070255 1.767377015257171 -1.1103939278119466 0.0
H H -0.7626163219070256 1.8039570152571711 -1.1372439278119466 0.0
C C -0.7336990773094463 1.7421009290948737 -1.0107173539372794 0.0
H H -0.7064490773094464 1.7749709290948739 -0.9766673539372793 0.0
C C -0.7536555790734116 1.5958573971649432 -1.2019424637733533 0.0
H H -0.7656955790734116 1.559527397164943 -1.1704924637733534 0.0
C C -0.7540451885893783 1.5965818561493306 -1.3116590175162977 0.0
H H -0.7522751885893783 1.5628518561493305 -1.3531990175162978 0.0
C C -0.7408274052963014 1.6755200234882337 -1.3509842542194863 0.0
C C -0.7412523418227417 1.714655443318856 -1.266312630037762 0.0
H H -0.7550023418227416 1.750725443318856 -1.297972630037762 0.0
C C -0.926845116303191 1.6663647208262153 -0.6508855619746264 0.0
C C -0.7655738371906032 1.517283235987951 -0.784538433043266 0.0
H H -0.7898138371906033 1.547253235987951 -0.8280784330432659 0.0
C C -0.7632923148626394 1.4512873959237738 -0.8326130605314026 0.0
H H -0.7832223148626394 1.4429473959237737 -0.9016530605314027 0.0
C C -0.7344573763396387 1.4157611835890462 -0.7362752653777367 0.0
H H -0.7572973763396389 1.3776311835890465 -0.7492152653777366 0.0
C C -0.6800745308718829 1.4418140462313667 -0.6685791392277958 0.0
C C -0.7063160249286918 1.5106581889826396 -0.6360188685986545 0.0
C C -0.6216835114066341 1.5020052743811785 -0.5362162581670613 0.0
H H -0.6002335114066344 1.5405752743811785 -0.5248562581670614 0.0
C C -0.611012564014674 1.471152097204855 -0.4895038873713365 0.0
H H -0.5846425640146741 1.4841120972048552 -0.42493388737133647 0.0
C C -0.6120567959135531 1.4036356876722846 -0.48428385442098215 0.0
H H -0.5797867959135531 1.3753956876722848 -0.44182385442098215 0.0
C C -0.6382943637665089 1.3983445011121354 -0.5726431406091955 0.0
C C -0.5734469769268226 1.3017899059345621 -0.6369058652055147 0.0
C C -0.7509477155789437 1.3249758749604708 -0.5698404374709387 0.0
C C -0.7925456552217413 1.2438775809042644 -0.6132588168311658 0.0
C C -0.8626811134045468 1.2206059760055061 -0.5825049862712028 0.0
H H -0.9170111134045467 1.241155976005506 -0.5497249862712028 0.0
C C -0.8937016579541919 1.1777491266344347 -0.6322865847241846 0.0
H H -0.9631316579541919 1.1655791266344346 -0.6419965847241846 0.0
C C -0.7971070071674886 1.1498574757881759 -0.6311871622261714 0.0
C C -0.7017754780001361 1.1669870528718793 -0.6732303549339795 0.0
C C -0.6931560121364292 1.2274622990047894 -0.6139810438650786 0.0
C C -0.611002932317481 1.2305196269473362 -0.6352325004181861 0.0
C C -0.5041306459909711 1.2072605299285537 -0.6640046577495325 0.0
H H -0.4364806459909711 1.2226305299285538 -0.6711446577495326 0.0
C C -0.5262389944517937 1.139888694224435 -0.6752029867673222 0.0
H H -0.4733689944517936 1.115648694224435 -0.7017329867673223 0.0
C C -0.6183144490859196 1.1211651938591534 -0.6742045222365683 0.0
C C -0.652735279904653 1.053651257630355 -0.6796054190903182 0.0
C C -0.8093681974082128 1.0707451005927113 -0.6426289236960704 0.0
C C -0.7758355217563686 0.9804009173340285 -0.7095928379923108 0.0
C C -0.8247469952034729 0.9620006823324775 -0.8066791685722522 0.0
H H -0.8341669952034729 0.9952506823324777 -0.8481891685722523 0.0
C C -0.8349826138371929 0.9150538553007168 -0.8520443597300297 0.0
H H -0.8746656138371928 0.9076638553007168 -0.9124283597300297 0.0
C C -0.8194382313344711 0.8553940368695241 -0.7991049728883707 0.0
H H -0.805748231334471 0.8167340368695242 -0.8185949728883706 0.0
C C -0.7682152146679903 0.8763207809010094 -0.6420289678030113 0.0
C C -0.7443028848291201 0.9332465659546213 -0.6301582323259842 0.0
C C -0.6920190810186485 0.9533970765140629 -0.5294080279135513 0.0
H H -0.6827490810186486 0.9920570765140629 -0.5079380279135512 0.0
C C -0.6552531009537643 0.9056257258505923 -0.49536077248401295 0.0
H H -0.6155931009537642 0.9099857258505922 -0.434000772484013 0.0
C C -0.6964738019231137 0.8474397218659234 -0.5288569334206928 0.0
H H -0.6923838019231136 0.8189797218659234 -0.4759769334206928 0.0
N N -0.7013986378782908 1.539792117759109 -0.6936751569120535 0.0
N N -0.6819607113050318 1.3267966152894362 -0.5906202219326295 0.0
N N -0.7644597381786945 1.0449071224411213 -0.6815461103962652 0.0
N N -0.726702933887469 0.8235204555968437 -0.6176035013231921 0.0
O O -0.589997009851578 1.6460234668014777 -0.6515605783937005 0.0
O O -0.5755606523387861 1.7363862174029516 -0.6373325117108105 0.0
O O -0.7590576124696176 1.6385045798237277 -0.5174462190397164 0.0
O O -0.7427825009200656 1.7181629151724944 -0.47895359034978763 0.0
O O -0.7007076200701916 1.6426001843594813 -0.8139004142901922 0.0
O O -0.7232327927607929 1.750912996360447 -0.8038107770810683 0.0
O O -0.8825838914646051 1.6365320333327649 -0.6563499989918514 0.0
O O -0.9088003664231009 1.7306480015818015 -0.6455661089560465 0.0
O O -0.837280160186252 1.3327982027813219 -0.5364114725826057 0.0
O O -0.5213740042469153 1.3312990070406538 -0.6422957065565417 0.0
O O -0.930662074331026 1.0387265685483424 -0.6698896598843433 0.0
O O -0.5642700271191827 1.0197817865235268 -0.7190130946747415 0.0
Zn Zn -0.7392894516190064 1.756471900553129 -0.6349768450522786 0.0
Zn Zn -0.7107960844044025 1.6185632326350372 -0.6467125972980845 0.0
