_cell_length_a 25.179
_cell_length_b 37.484199844079754
_cell_length_c 44.4702
_cell_angle_alpha 90.0
_cell_angle_beta 90.0
_cell_angle_gamma 94.03100043039683
_symmetry_space_group_name_H-M         'P 1'
_symmetry_Int_Tables_number            1
loop_
_symmetry_equiv_pos_as_xyz
   'x, y, z'
                         
loop_
_atom_site_label
_atom_site_type_symbol
_atom_site_fract_x 
_atom_site_fract_y
_atom_site_fract_z
_atom_site_charge
Cd Cd 0.22656 0.0169182 0.212287 0.0
Cd Cd 0.107015 0.237129 0.465009 0.0
Cd Cd 0.101822 0.486955 0.286482 0.0
Cd Cd 0.232767 0.260206 0.0391121 0.0
H_ H_ 0.0228523 0.08049 0.228941 0.0
H_ H_ 0.346086 0.137053 0.204042 0.0
H_ H_ 0.165652 0.0689298 0.177616 0.0
H_ H_ 0.211794 0.262568 0.11117 0.0
H_ H_ 0.156801 0.229748 0.147852 0.0
H_ H_ 0.123933 0.145778 0.0860949 0.0
H_ H_ 0.167068 0.185616 0.0467765 0.0
H_ H_ 0.0715411 0.0199858 0.154088 0.0
H_ H_ 0.122947 0.0383773 0.108492 0.0
H_ H_ 0.268783 0.0862918 0.122838 0.0
H_ H_ 0.101674 0.150148 0.460092 0.0
H_ H_ 0.0971345 0.103283 0.998485 0.0
H_ H_ 0.0186309 0.168727 0.0621053 0.0
H_ H_ 0.0428058 0.222851 0.0315117 0.0
H_ H_ 0.29849 0.158389 0.489773 0.0
H_ H_ 0.999055 0.122436 0.438826 0.0
H_ H_ 0.172573 0.185927 0.432527 0.0
H_ H_ 0.123221 0.486145 0.356173 0.0
H_ H_ 0.202136 0.0310881 0.388548 0.0
H_ H_ 0.172521 0.118715 0.329687 0.0
H_ H_ 0.155287 0.0719165 0.289552 0.0
H_ H_ 0.265072 0.232919 0.401586 0.0
H_ H_ 0.209876 0.215348 0.359552 0.0
H_ H_ 0.0630187 0.171276 0.370186 0.0
H_ H_ 0.207942 0.10237 0.214303 0.0
H_ H_ 0.235333 0.15642 0.24438 0.0
H_ H_ 0.297066 0.0859876 0.311381 0.0
H_ H_ 0.284664 0.0370991 0.276265 0.0
H_ H_ 0.307492 0.413199 0.27311 0.0
H_ H_ 0.993475 0.366461 0.305012 0.0
H_ H_ 0.175548 0.447861 0.3245 0.0
H_ H_ 0.128415 0.321089 0.460658 0.0
H_ H_ 0.154247 0.367251 0.420102 0.0
H_ H_ 0.182625 0.281736 0.361154 0.0
H_ H_ 0.155234 0.238386 0.400634 0.0
H_ H_ 0.266938 0.492214 0.350785 0.0
H_ H_ 0.216203 0.476655 0.398446 0.0
H_ H_ 0.0588579 0.419942 0.380043 0.0
H_ H_ 0.206745 0.342024 0.0294593 0.0
H_ H_ 0.277063 0.400929 0.51066 0.0
H_ H_ 0.28865 0.334396 0.436038 0.0
H_ H_ 0.265013 0.281591 0.468677 0.0
H_ H_ 0.021938 0.331598 0.0236158 0.0
H_ H_ 0.358837 0.396128 0.0461221 0.0
H_ H_ 0.164973 0.312672 0.0761875 0.0
H_ H_ 0.21451 0.0168001 0.140009 0.0
H_ H_ 0.145978 0.476497 0.10793 0.0
H_ H_ 0.153638 0.391062 0.171944 0.0
H_ H_ 0.196799 0.430972 0.206848 0.0
H_ H_ 0.0695154 0.267044 0.0969 0.0
H_ H_ 0.122318 0.296251 0.137677 0.0
H_ H_ 0.271695 0.331532 0.13433 0.0
H_ H_ 0.127754 0.40404 0.28049 0.0
H_ H_ 0.102375 0.352729 0.246094 0.0
H_ H_ 0.0308966 0.420167 0.18552 0.0
H_ H_ 0.0522121 0.472863 0.220106 0.0
C_ C_ 0.106221 0.0390141 0.225608 0.0
C_ C_ 0.0919027 0.0677966 0.20511 0.0
C_ C_ 0.0457232 0.0862248 0.208494 0.0
C_ C_ 0.0333295 0.112116 0.186729 0.0
C_ C_ 0.0683403 0.123078 0.165397 0.0
C_ C_ 0.114191 0.105723 0.16202 0.0
C_ C_ 0.129247 0.079739 0.181874 0.0
C_ C_ 0.149343 0.130885 0.150752 0.0
C_ C_ 0.0773376 0.1584 0.155327 0.0
C_ C_ 0.188746 0.240418 0.104406 0.0
C_ C_ 0.158331 0.220246 0.125912 0.0
C_ C_ 0.145015 0.185904 0.120727 0.0
C_ C_ 0.141462 0.173651 0.0902797 0.0
C_ C_ 0.161497 0.195962 0.0680821 0.0
C_ C_ 0.300031 0.0441307 0.167311 0.0
C_ C_ 0.32785 0.0504859 0.138785 0.0
C_ C_ 0.05115 0.0317111 0.136285 0.0
C_ C_ 0.0818481 0.0425844 0.109914 0.0
C_ C_ 0.0548645 0.057391 0.0856015 0.0
C_ C_ 0.326641 0.0733828 0.0890964 0.0
C_ C_ 0.305347 0.0731768 0.117608 0.0
C_ C_ 0.0801753 0.0782336 0.0641811 0.0
C_ C_ 0.325785 0.102194 0.0700529 0.0
C_ C_ 0.0897222 0.153275 0.483457 0.0
C_ C_ 0.084976 0.128206 0.00547594 0.0
C_ C_ 0.0562658 0.1314 0.0334682 0.0
C_ C_ 0.0358396 0.164976 0.0408839 0.0
C_ C_ 0.0515956 0.195111 0.022957 0.0
C_ C_ 0.231499 0.212054 0.479002 0.0
C_ C_ 0.240378 0.179044 0.461885 0.0
C_ C_ 0.276395 0.155027 0.470441 0.0
C_ C_ 0.285424 0.125191 0.45155 0.0
C_ C_ 0.249469 0.116729 0.429277 0.0
C_ C_ 0.207961 0.136078 0.424616 0.0
C_ C_ 0.205872 0.170115 0.4374 0.0
C_ C_ 0.188239 0.126732 0.39608 0.0
C_ C_ 0.254088 0.0940352 0.404732 0.0
C_ C_ 0.161387 0.0183517 0.347548 0.0
C_ C_ 0.183897 0.0416099 0.368656 0.0
C_ C_ 0.195928 0.0776209 0.361726 0.0
C_ C_ 0.17384 0.0895798 0.333959 0.0
C_ C_ 0.157162 0.064467 0.312293 0.0
C_ C_ 0.0333685 0.214235 0.416858 0.0
C_ C_ 0.00252011 0.205814 0.389968 0.0
C_ C_ 0.281638 0.217002 0.384112 0.0
C_ C_ 0.248881 0.20538 0.360963 0.0
C_ C_ 0.266123 0.1764 0.34315 0.0
C_ C_ 0.996826 0.181452 0.338703 0.0
C_ C_ 0.0237016 0.185279 0.366683 0.0
C_ C_ 0.250041 0.170294 0.312949 0.0
C_ C_ 0.000256735 0.154603 0.319192 0.0
C_ C_ 0.227221 0.099262 0.235904 0.0
C_ C_ 0.245893 0.13006 0.252108 0.0
C_ C_ 0.273177 0.125967 0.27847 0.0
C_ C_ 0.285054 0.0916845 0.288573 0.0
C_ C_ 0.274534 0.0635755 0.269432 0.0
C_ C_ 0.22944 0.461899 0.273205 0.0
C_ C_ 0.238222 0.432805 0.294708 0.0
C_ C_ 0.279885 0.409288 0.29053 0.0
C_ C_ 0.28937 0.383379 0.312945 0.0
C_ C_ 0.26204 0.384974 0.339642 0.0
C_ C_ 0.217918 0.405723 0.341904 0.0
C_ C_ 0.205448 0.429126 0.319804 0.0
C_ C_ 0.179019 0.384742 0.357889 0.0
C_ C_ 0.249561 0.354396 0.355348 0.0
C_ C_ 0.145439 0.313683 0.439103 0.0
C_ C_ 0.158772 0.339281 0.415803 0.0
C_ C_ 0.178486 0.327462 0.388662 0.0
C_ C_ 0.175614 0.291287 0.383643 0.0
C_ C_ 0.160562 0.265945 0.406054 0.0
C_ C_ 0.0320616 0.462538 0.333274 0.0
C_ C_ 0.00061522 0.454238 0.360209 0.0
C_ C_ 0.283244 0.47525 0.368642 0.0
C_ C_ 0.254961 0.467478 0.395191 0.0
C_ C_ 0.281711 0.451766 0.418027 0.0
C_ C_ 0.997351 0.432351 0.411966 0.0
C_ C_ 0.0243807 0.435007 0.384148 0.0
C_ C_ 0.257705 0.431186 0.442177 0.0
C_ C_ 0.0014547 0.406075 0.432479 0.0
C_ C_ 0.227064 0.337517 0.00842065 0.0
C_ C_ 0.265192 0.37716 0.499794 0.0
C_ C_ 0.271047 0.374154 0.469362 0.0
C_ C_ 0.26728 0.339322 0.457424 0.0
C_ C_ 0.253845 0.31069 0.475711 0.0
C_ C_ 0.112513 0.291923 0.0261 0.0
C_ C_ 0.0964397 0.319955 0.0476853 0.0
C_ C_ 0.0490652 0.338962 0.0423892 0.0
C_ C_ 0.0360798 0.364445 0.0618998 0.0
C_ C_ 0.0672776 0.370617 0.0884082 0.0
C_ C_ 0.114448 0.35402 0.0920718 0.0
C_ C_ 0.128611 0.328629 0.0722136 0.0
C_ C_ 0.149534 0.378889 0.105887 0.0
C_ C_ 0.075122 0.402993 0.102358 0.0
C_ C_ 0.170079 0.490922 0.154158 0.0
C_ C_ 0.149805 0.46766 0.131913 0.0
C_ C_ 0.141572 0.431933 0.137627 0.0
C_ C_ 0.154784 0.418931 0.16639 0.0
C_ C_ 0.178351 0.442749 0.18742 0.0
C_ C_ 0.303879 0.292293 0.0867726 0.0
C_ C_ 0.333626 0.301812 0.113536 0.0
C_ C_ 0.0504246 0.280595 0.114226 0.0
C_ C_ 0.0799491 0.291764 0.139869 0.0
C_ C_ 0.055195 0.308489 0.163082 0.0
C_ C_ 0.330758 0.318166 0.166545 0.0
C_ C_ 0.30892 0.319651 0.137743 0.0
C_ C_ 0.0790767 0.332575 0.183287 0.0
C_ C_ 0.324075 0.342596 0.1891 0.0
C_ C_ 0.10447 0.407585 0.259512 0.0
C_ C_ 0.0901434 0.378729 0.241626 0.0
C_ C_ 0.0588363 0.383266 0.215442 0.0
C_ C_ 0.0438655 0.417103 0.207898 0.0
C_ C_ 0.0595796 0.446693 0.226337 0.0
N_ N_ 0.186579 0.228909 0.0749401 0.0
N_ N_ 0.129329 0.162851 0.146012 0.0
N_ N_ 0.0444804 0.100952 0.0526714 0.0
N_ N_ 0.0872367 0.191525 0.999717 0.0
N_ N_ 0.15016 0.0296186 0.319905 0.0
N_ N_ 0.218953 0.103407 0.382668 0.0
N_ N_ 0.288094 0.156124 0.297642 0.0
N_ N_ 0.239797 0.0663421 0.245999 0.0
N_ N_ 0.145181 0.278021 0.433477 0.0
N_ N_ 0.198063 0.352957 0.36597 0.0
N_ N_ 0.288469 0.405229 0.45054 0.0
N_ N_ 0.242061 0.31577 0.504995 0.0
N_ N_ 0.18308 0.477722 0.181773 0.0
N_ N_ 0.124357 0.406924 0.113807 0.0
N_ N_ 0.0438927 0.353372 0.196124 0.0
N_ N_ 0.0867205 0.440347 0.252587 0.0
O_ O_ 0.131648 0.0142222 0.214547 0.0
O_ O_ 0.0822086 0.0328977 0.251102 0.0
O_ O_ 0.0360587 0.175178 0.143038 0.0
O_ O_ 0.188282 0.119748 0.133947 0.0
O_ O_ 0.258922 0.0593998 0.174007 0.0
O_ O_ 0.30612 0.0158069 0.181893 0.0
O_ O_ 0.282402 0.1209 0.0661368 0.0
O_ O_ 0.133467 0.0867564 0.0649353 0.0
O_ O_ 0.205546 0.236506 0.467155 0.0
O_ O_ 0.247475 0.209113 0.00707876 0.0
O_ O_ 0.301122 0.0826902 0.397719 0.0
O_ O_ 0.136834 0.129241 0.388446 0.0
O_ O_ 0.0739096 0.196623 0.422982 0.0
O_ O_ 0.0257675 0.242301 0.432411 0.0
O_ O_ 0.0463027 0.14435 0.308488 0.0
O_ O_ 0.207722 0.181042 0.300463 0.0
O_ O_ 0.202326 0.487915 0.280552 0.0
O_ O_ 0.252583 0.463306 0.247789 0.0
O_ O_ 0.278856 0.325841 0.357376 0.0
O_ O_ 0.128228 0.388902 0.354415 0.0
O_ O_ 0.070446 0.444189 0.325406 0.0
O_ O_ 0.0225952 0.490262 0.31731 0.0
O_ O_ 0.0456302 0.389461 0.436952 0.0
O_ O_ 0.20661 0.425522 0.444683 0.0
O_ O_ 0.133731 0.264186 0.0355619 0.0
O_ O_ 0.079919 0.284559 0.500027 0.0
O_ O_ 0.049693 0.431178 0.0931601 0.0
O_ O_ 0.200777 0.380099 0.102193 0.0
O_ O_ 0.268264 0.31136 0.0776123 0.0
O_ O_ 0.312021 0.263846 0.072021 0.0
O_ O_ 0.29035 0.366456 0.188391 0.0
O_ O_ 0.127807 0.330808 0.194323 0.0
Cd Cd 0.232307 0.0127887 0.710867 0.0
Cd Cd 0.10713 0.241116 0.96631 0.0
Cd Cd 0.103973 0.489736 0.785732 0.0
Cd Cd 0.231172 0.267002 0.535951 0.0
H_ H_ 0.0228394 0.0838158 0.72665 0.0
H_ H_ 0.393948 0.161594 0.724189 0.0
H_ H_ 0.157805 0.062608 0.673895 0.0
H_ H_ 0.166207 0.262284 0.601982 0.0
H_ H_ 0.105834 0.218943 0.629626 0.0
H_ H_ 0.165456 0.13436 0.574509 0.0
H_ H_ 0.209268 0.180701 0.542844 0.0
H_ H_ 0.0694091 0.0204905 0.652857 0.0
H_ H_ 0.122098 0.0344761 0.606728 0.0
H_ H_ 0.265309 0.0628307 0.606196 0.0
H_ H_ 0.122396 0.154588 0.969661 0.0
H_ H_ 0.0823595 0.0964508 0.494841 0.0
H_ H_ 0.027817 0.171641 0.560354 0.0
H_ H_ 0.0669108 0.222445 0.528972 0.0
H_ H_ 0.314799 0.167459 0.9852 0.0
H_ H_ 0.993285 0.115653 0.945409 0.0
H_ H_ 0.171836 0.186265 0.932363 0.0
H_ H_ 0.169858 0.492849 0.847291 0.0
H_ H_ 0.153093 0.0306942 0.898725 0.0
H_ H_ 0.218877 0.10619 0.833993 0.0
H_ H_ 0.177851 0.0684931 0.792969 0.0
H_ H_ 0.266232 0.230472 0.896577 0.0
H_ H_ 0.2229 0.217149 0.85072 0.0
H_ H_ 0.063463 0.175752 0.867685 0.0
H_ H_ 0.234107 0.0936324 0.715499 0.0
H_ H_ 0.26106 0.144232 0.749291 0.0
H_ H_ 0.329639 0.0727732 0.809094 0.0
H_ H_ 0.302928 0.0240585 0.773537 0.0
H_ H_ 0.243462 0.395905 0.744441 0.0
H_ H_ 5.90614e-06 0.374556 0.8125 0.0
H_ H_ 0.21882 0.445853 0.829901 0.0
H_ H_ 0.0706036 0.314984 0.938901 0.0
H_ H_ 0.0891 0.351957 0.893808 0.0
H_ H_ 0.223169 0.292207 0.874457 0.0
H_ H_ 0.195446 0.250428 0.918117 0.0
H_ H_ 0.267224 0.485451 0.854544 0.0
H_ H_ 0.220589 0.475221 0.903751 0.0
H_ H_ 0.0560823 0.418588 0.877828 0.0
H_ H_ 0.263286 0.350924 0.541578 0.0
H_ H_ 0.237524 0.394305 0.997236 0.0
H_ H_ 0.30401 0.319585 0.935776 0.0
H_ H_ 0.29328 0.275297 0.976559 0.0
H_ H_ 0.0190126 0.330692 0.523532 0.0
H_ H_ 0.464782 0.412449 0.511368 0.0
H_ H_ 0.166953 0.319571 0.56653 0.0
H_ H_ 0.166519 0.00674016 0.64716 0.0
H_ H_ 0.134167 0.469408 0.611178 0.0
H_ H_ 0.166751 0.384494 0.671748 0.0
H_ H_ 0.200894 0.429663 0.710734 0.0
H_ H_ 0.066686 0.273361 0.594348 0.0
H_ H_ 0.125476 0.292172 0.637432 0.0
H_ H_ 0.31732 0.35598 0.608722 0.0
H_ H_ 0.110656 0.406 0.783945 0.0
H_ H_ 0.0771664 0.350984 0.754483 0.0
H_ H_ 0.034939 0.423945 0.682024 0.0
H_ H_ 0.0474773 0.471951 0.716546 0.0
C_ C_ 0.111164 0.0433087 0.728609 0.0
C_ C_ 0.0999442 0.0748166 0.708125 0.0
C_ C_ 0.0509723 0.091316 0.710579 0.0
C_ C_ 0.0391919 0.11647 0.689893 0.0
C_ C_ 0.0801703 0.13129 0.670626 0.0
C_ C_ 0.128364 0.116504 0.668453 0.0
C_ C_ 0.134453 0.0841005 0.683155 0.0
C_ C_ 0.149511 0.126448 0.641451 0.0
C_ C_ 0.0730713 0.148793 0.643912 0.0
C_ C_ 0.158569 0.235711 0.592155 0.0
C_ C_ 0.129377 0.209979 0.609764 0.0
C_ C_ 0.13416 0.17325 0.604573 0.0
C_ C_ 0.167759 0.162882 0.580968 0.0
C_ C_ 0.19374 0.189711 0.562743 0.0
C_ C_ 0.303373 0.0315689 0.660529 0.0
C_ C_ 0.330723 0.0381718 0.631036 0.0
C_ C_ 0.051307 0.0324267 0.635541 0.0
C_ C_ 0.0826343 0.0425432 0.609125 0.0
C_ C_ 0.0546762 0.0578081 0.585248 0.0
C_ C_ 0.342174 0.0741721 0.586604 0.0
C_ C_ 0.308915 0.0601619 0.60892 0.0
C_ C_ 0.0787207 0.0777371 0.562614 0.0
C_ C_ 0.339984 0.10872 0.574571 0.0
C_ C_ 0.105126 0.158933 0.991443 0.0
C_ C_ 0.0738473 0.123708 0.501916 0.0
C_ C_ 0.0567256 0.130965 0.531563 0.0
C_ C_ 0.050835 0.16663 0.540215 0.0
C_ C_ 0.0714471 0.194461 0.521953 0.0
C_ C_ 0.223935 0.206851 0.982071 0.0
C_ C_ 0.242156 0.180326 0.960775 0.0
C_ C_ 0.285786 0.159011 0.967477 0.0
C_ C_ 0.296931 0.131524 0.947827 0.0
C_ C_ 0.27117 0.128795 0.920738 0.0
C_ C_ 0.224342 0.146316 0.916269 0.0
C_ C_ 0.208434 0.171082 0.936177 0.0
C_ C_ 0.191975 0.123834 0.899166 0.0
C_ C_ 0.262756 0.0963272 0.905976 0.0
C_ C_ 0.150519 0.0138603 0.852439 0.0
C_ C_ 0.169494 0.0367124 0.876271 0.0
C_ C_ 0.196364 0.0693539 0.869124 0.0
C_ C_ 0.199886 0.0798114 0.839078 0.0
C_ C_ 0.180698 0.0562625 0.816147 0.0
C_ C_ 0.0365247 0.216953 0.916401 0.0
C_ C_ 0.00240487 0.206402 0.889262 0.0
C_ C_ 0.287801 0.217725 0.879506 0.0
C_ C_ 0.262225 0.209171 0.852757 0.0
C_ C_ 0.287816 0.191285 0.830527 0.0
C_ C_ 0.998011 0.18393 0.838673 0.0
C_ C_ 0.0238985 0.186648 0.865684 0.0
C_ C_ 0.26333 0.167701 0.811062 0.0
C_ C_ 0.000902064 0.154189 0.820324 0.0
C_ C_ 0.246386 0.0895925 0.738561 0.0
C_ C_ 0.257454 0.117893 0.757621 0.0
C_ C_ 0.285368 0.11265 0.784395 0.0
C_ C_ 0.302808 0.0791077 0.790243 0.0
C_ C_ 0.286207 0.0503357 0.771333 0.0
C_ C_ 0.221859 0.460173 0.76989 0.0
C_ C_ 0.224002 0.425898 0.78562 0.0
C_ C_ 0.232276 0.394255 0.768856 0.0
C_ C_ 0.218906 0.360617 0.781528 0.0
C_ C_ 0.212193 0.35821 0.813211 0.0
C_ C_ 0.21738 0.389441 0.830546 0.0
C_ C_ 0.218114 0.42258 0.816399 0.0
C_ C_ 0.190453 0.380491 0.857637 0.0
C_ C_ 0.17965 0.333775 0.82742 0.0
C_ C_ 0.1039 0.310599 0.924663 0.0
C_ C_ 0.112752 0.330191 0.899189 0.0
C_ C_ 0.154803 0.322885 0.8802 0.0
C_ C_ 0.188188 0.294156 0.88852 0.0
C_ C_ 0.177196 0.275767 0.914997 0.0
C_ C_ 0.0336209 0.463673 0.833137 0.0
C_ C_ 0.998468 0.452576 0.859604 0.0
C_ C_ 0.285977 0.472233 0.871709 0.0
C_ C_ 0.261822 0.467962 0.899883 0.0
C_ C_ 0.282977 0.444018 0.919795 0.0
C_ C_ 0.996649 0.430269 0.91044 0.0
C_ C_ 0.0215257 0.433592 0.882884 0.0
C_ C_ 0.251945 0.418538 0.937584 0.0
C_ C_ 4.76495e-05 0.401843 0.929482 0.0
C_ C_ 0.252804 0.348674 0.518142 0.0
C_ C_ 0.242881 0.366323 0.989233 0.0
C_ C_ 0.265162 0.358737 0.960989 0.0
C_ C_ 0.281558 0.325378 0.955131 0.0
C_ C_ 0.273934 0.299242 0.977592 0.0
C_ C_ 0.10628 0.291762 0.523684 0.0
C_ C_ 0.0967068 0.323134 0.5413 0.0
C_ C_ 0.0492073 0.34108 0.538698 0.0
C_ C_ 0.0398953 0.367786 0.559124 0.0
C_ C_ 0.0833101 0.384079 0.573717 0.0
C_ C_ 0.131829 0.369995 0.57429 0.0
C_ C_ 0.135659 0.336456 0.561741 0.0
C_ C_ 0.156186 0.380792 0.601224 0.0
C_ C_ 0.0800874 0.401094 0.60186 0.0
C_ C_ 0.174767 0.484847 0.653277 0.0
C_ C_ 0.150719 0.460681 0.633136 0.0
C_ C_ 0.145991 0.424683 0.640758 0.0
C_ C_ 0.168047 0.413486 0.667591 0.0
C_ C_ 0.187376 0.438178 0.68872 0.0
C_ C_ 0.30588 0.291057 0.580575 0.0
C_ C_ 0.341799 0.300956 0.606405 0.0
C_ C_ 0.0508578 0.285988 0.612846 0.0
C_ C_ 0.0829216 0.296815 0.638317 0.0
C_ C_ 0.0559355 0.307833 0.664041 0.0
C_ C_ 0.373716 0.344547 0.643895 0.0
C_ C_ 0.343426 0.336631 0.617818 0.0
C_ C_ 0.0797183 0.328717 0.686604 0.0
C_ C_ 0.359874 0.367277 0.666135 0.0
C_ C_ 0.0885721 0.408546 0.762152 0.0
C_ C_ 0.0761972 0.378336 0.744483 0.0
C_ C_ 0.0574606 0.382761 0.714903 0.0
C_ C_ 0.0481201 0.417374 0.704454 0.0
C_ C_ 0.0559017 0.446194 0.723973 0.0
N_ N_ 0.187827 0.225245 0.568609 0.0
N_ N_ 0.114727 0.145528 0.625205 0.0
N_ N_ 0.0426693 0.10076 0.552032 0.0
N_ N_ 0.0908242 0.187821 0.494492 0.0
N_ N_ 0.151481 0.0259147 0.824008 0.0
N_ N_ 0.213659 0.0940492 0.893084 0.0
N_ N_ 0.295466 0.142187 0.804974 0.0
N_ N_ 0.253922 0.0559508 0.747074 0.0
N_ N_ 0.132896 0.282953 0.932112 0.0
N_ N_ 0.168765 0.346023 0.855171 0.0
N_ N_ 0.279894 0.389448 0.94288 0.0
N_ N_ 0.24101 0.303495 0.00152143 0.0
N_ N_ 0.193282 0.473075 0.68029 0.0
N_ N_ 0.123452 0.397324 0.619214 0.0
N_ N_ 0.0429544 0.351037 0.697502 0.0
N_ N_ 0.077853 0.441554 0.751955 0.0
O_ O_ 0.133495 0.0166881 0.717176 0.0
O_ O_ 0.0882734 0.0392688 0.753171 0.0
O_ O_ 0.0344607 0.169731 0.638704 0.0
O_ O_ 0.184411 0.108255 0.628489 0.0
O_ O_ 0.2631 0.0486011 0.667975 0.0
O_ O_ 0.312688 0.0052333 0.677413 0.0
O_ O_ 0.299817 0.129702 0.578692 0.0
O_ O_ 0.11592 0.0647992 0.54442 0.0
O_ O_ 0.201916 0.234055 0.97211 0.0
O_ O_ 0.259278 0.218482 0.502753 0.0
O_ O_ 0.301497 0.0764259 0.896107 0.0
O_ O_ 0.141835 0.129081 0.893272 0.0
O_ O_ 0.0826157 0.205745 0.919427 0.0
O_ O_ 0.0235696 0.238496 0.935441 0.0
O_ O_ 0.0475296 0.144443 0.81064 0.0
O_ O_ 0.210763 0.162688 0.808819 0.0
O_ O_ 0.202239 0.486427 0.782902 0.0
O_ O_ 0.254093 0.466792 0.748941 0.0
O_ O_ 0.179131 0.299757 0.821189 0.0
O_ O_ 0.165459 0.404546 0.872918 0.0
O_ O_ 0.0771161 0.449663 0.829036 0.0
O_ O_ 0.0195078 0.486579 0.814685 0.0
O_ O_ 0.0440234 0.394605 0.941934 0.0
O_ O_ 0.200427 0.416289 0.936576 0.0
O_ O_ 0.13239 0.265745 0.536289 0.0
O_ O_ 0.0934416 0.291402 0.999292 0.0
O_ O_ 0.048137 0.427302 0.607182 0.0
O_ O_ 0.196372 0.363257 0.612071 0.0
O_ O_ 0.258249 0.300445 0.578361 0.0
O_ O_ 0.320236 0.270004 0.560447 0.0
O_ O_ 0.352059 0.40024 0.660656 0.0
O_ O_ 0.113919 0.315672 0.704235 0.0
Cd Cd 0.229012 0.513133 0.215311 0.0
Cd Cd 0.106425 0.738279 0.462026 0.0
Cd Cd 0.105432 0.988533 0.288485 0.0
Cd Cd 0.22861 0.759584 0.0356737 0.0
H_ H_ 0.0145892 0.579703 0.226204 0.0
H_ H_ 0.337729 0.632078 0.192635 0.0
H_ H_ 0.166246 0.564287 0.185857 0.0
H_ H_ 0.173253 0.76023 0.100698 0.0
H_ H_ 0.142533 0.715952 0.139429 0.0
H_ H_ 0.161911 0.628369 0.079598 0.0
H_ H_ 0.216847 0.672813 0.0446808 0.0
H_ H_ 0.0678806 0.514387 0.15248 0.0
H_ H_ 0.119701 0.535817 0.106613 0.0
H_ H_ 0.269098 0.575514 0.118998 0.0
H_ H_ 0.11682 0.651269 0.466009 0.0
H_ H_ 0.0752441 0.599549 0.994838 0.0
H_ H_ 0.0279747 0.671476 0.0643023 0.0
H_ H_ 0.0539503 0.723183 0.0295317 0.0
H_ H_ 0.285934 0.653028 0.495409 0.0
H_ H_ 0.993769 0.616819 0.444421 0.0
H_ H_ 0.171158 0.69013 0.432847 0.0
H_ H_ 0.153609 0.990734 0.353422 0.0
H_ H_ 0.155986 0.524102 0.398442 0.0
H_ H_ 0.182805 0.60969 0.335889 0.0
H_ H_ 0.155716 0.569067 0.294868 0.0
H_ H_ 0.270676 0.732065 0.403656 0.0
H_ H_ 0.21034 0.707518 0.361476 0.0
H_ H_ 0.0677442 0.680061 0.367183 0.0
H_ H_ 0.221829 0.596143 0.217954 0.0
H_ H_ 0.24892 0.647905 0.248471 0.0
H_ H_ 0.295659 0.578868 0.318386 0.0
H_ H_ 0.284083 0.527673 0.283034 0.0
H_ H_ 0.315106 0.923847 0.272982 0.0
H_ H_ 0.999147 0.872474 0.310965 0.0
H_ H_ 0.16743 0.938855 0.314595 0.0
H_ H_ 0.141717 0.746433 0.39365 0.0
H_ H_ 0.169829 0.789814 0.35734 0.0
H_ H_ 0.16 0.870856 0.422864 0.0
H_ H_ 0.129107 0.825828 0.459064 0.0
H_ H_ 0.258125 0.976223 0.344259 0.0
H_ H_ 0.212754 0.959719 0.392035 0.0
H_ H_ 0.0620831 0.926764 0.383192 0.0
H_ H_ 0.20922 0.841678 0.02917 0.0
H_ H_ 0.237705 0.898635 0.500478 0.0
H_ H_ 0.304024 0.827562 0.43473 0.0
H_ H_ 0.294834 0.781187 0.47368 0.0
H_ H_ 0.0237571 0.829532 0.0232374 0.0
H_ H_ 0.334876 0.87836 0.0605075 0.0
H_ H_ 0.16662 0.814712 0.0724475 0.0
H_ H_ 0.167198 0.518314 0.151283 0.0
H_ H_ 0.180513 0.97645 0.0989738 0.0
H_ H_ 0.13657 0.896968 0.16438 0.0
H_ H_ 0.174512 0.935896 0.203986 0.0
H_ H_ 0.0744913 0.773942 0.0940096 0.0
H_ H_ 0.118982 0.783248 0.142672 0.0
H_ H_ 0.267738 0.819161 0.134844 0.0
H_ H_ 0.110287 0.903611 0.283456 0.0
H_ H_ 0.0863144 0.85281 0.251325 0.0
H_ H_ 0.018594 0.919834 0.187952 0.0
H_ H_ 0.0384677 0.969797 0.22442 0.0
C_ C_ 0.103968 0.541394 0.231826 0.0
C_ C_ 0.0950614 0.573281 0.210989 0.0
C_ C_ 0.0463589 0.590044 0.210713 0.0
C_ C_ 0.037469 0.615415 0.188969 0.0
C_ C_ 0.0678321 0.617602 0.164296 0.0
C_ C_ 0.113753 0.600201 0.162609 0.0
C_ C_ 0.130575 0.578671 0.186811 0.0
C_ C_ 0.149003 0.617918 0.143813 0.0
C_ C_ 0.0788791 0.647668 0.1456 0.0
C_ C_ 0.171858 0.731642 0.0950323 0.0
C_ C_ 0.150942 0.70691 0.117003 0.0
C_ C_ 0.146154 0.670114 0.110648 0.0
C_ C_ 0.167759 0.657469 0.0838478 0.0
C_ C_ 0.195054 0.682714 0.0650578 0.0
C_ C_ 0.3005 0.537778 0.167501 0.0
C_ C_ 0.331879 0.545765 0.140295 0.0
C_ C_ 0.0492298 0.531281 0.135018 0.0
C_ C_ 0.0783738 0.539889 0.107315 0.0
C_ C_ 0.0531505 0.556315 0.0847828 0.0
C_ C_ 0.33551 0.568005 0.0886336 0.0
C_ C_ 0.308071 0.566098 0.116634 0.0
C_ C_ 0.0772446 0.577209 0.0616124 0.0
C_ C_ 0.331529 0.595462 0.0682658 0.0
C_ C_ 0.100146 0.655346 0.488037 0.0
C_ C_ 0.0713443 0.625915 0.00424007 0.0
C_ C_ 0.0571565 0.632099 0.0340604 0.0
C_ C_ 0.0455394 0.666444 0.0426915 0.0
C_ C_ 0.064296 0.695533 0.0235904 0.0
C_ C_ 0.229394 0.711467 0.482423 0.0
C_ C_ 0.232362 0.67864 0.464827 0.0
C_ C_ 0.267287 0.652705 0.473444 0.0
C_ C_ 0.27769 0.623537 0.455211 0.0
C_ C_ 0.253065 0.62185 0.427298 0.0
C_ C_ 0.215391 0.645273 0.418828 0.0
C_ C_ 0.205942 0.674976 0.437283 0.0
C_ C_ 0.182082 0.629269 0.398428 0.0
C_ C_ 0.240103 0.591581 0.411112 0.0
C_ C_ 0.142973 0.512393 0.351716 0.0
C_ C_ 0.156627 0.535504 0.376337 0.0
C_ C_ 0.176866 0.570954 0.370093 0.0
C_ C_ 0.172205 0.583573 0.3408 0.0
C_ C_ 0.155116 0.559256 0.317398 0.0
C_ C_ 0.0343646 0.716442 0.415631 0.0
C_ C_ 0.00130162 0.706064 0.388792 0.0
C_ C_ 0.284217 0.716779 0.385837 0.0
C_ C_ 0.253238 0.70899 0.360119 0.0
C_ C_ 0.278975 0.696082 0.33478 0.0
C_ C_ 0.996765 0.683494 0.33768 0.0
C_ C_ 0.0244484 0.686902 0.365375 0.0
C_ C_ 0.255356 0.674061 0.312434 0.0
C_ C_ 0.00112872 0.655495 0.318206 0.0
C_ C_ 0.238522 0.592059 0.239477 0.0
C_ C_ 0.251939 0.621819 0.256326 0.0
C_ C_ 0.27356 0.617324 0.285634 0.0
C_ C_ 0.284161 0.583804 0.295244 0.0
C_ C_ 0.273707 0.554329 0.276414 0.0
C_ C_ 0.237022 0.967433 0.27355 0.0
C_ C_ 0.237258 0.931562 0.28792 0.0
C_ C_ 0.281812 0.912229 0.285932 0.0
C_ C_ 0.290246 0.885398 0.306953 0.0
C_ C_ 0.247791 0.874377 0.326013 0.0
C_ C_ 0.200955 0.89113 0.325265 0.0
C_ C_ 0.200364 0.923805 0.311481 0.0
C_ C_ 0.175978 0.880804 0.352577 0.0
C_ C_ 0.248491 0.854336 0.352334 0.0
C_ C_ 0.151397 0.773245 0.400381 0.0
C_ C_ 0.169631 0.79844 0.3796 0.0
C_ C_ 0.180629 0.833669 0.388803 0.0
C_ C_ 0.162954 0.842838 0.417948 0.0
C_ C_ 0.144647 0.817666 0.438092 0.0
C_ C_ 0.0316853 0.965413 0.333529 0.0
C_ C_ 0.00186142 0.95648 0.360813 0.0
C_ C_ 0.280627 0.96256 0.362017 0.0
C_ C_ 0.253959 0.955381 0.388929 0.0
C_ C_ 0.278566 0.942056 0.413976 0.0
C_ C_ 0.996588 0.931479 0.410392 0.0
C_ C_ 0.0220845 0.935794 0.383588 0.0
C_ C_ 0.251872 0.919776 0.434952 0.0
C_ C_ 0.999603 0.903145 0.430009 0.0
C_ C_ 0.230786 0.838871 0.00828965 0.0
C_ C_ 0.241523 0.871743 0.490631 0.0
C_ C_ 0.270552 0.866782 0.463584 0.0
C_ C_ 0.289031 0.83298 0.457425 0.0
C_ C_ 0.282393 0.806369 0.478731 0.0
C_ C_ 0.107613 0.788248 0.0262745 0.0
C_ C_ 0.09638 0.819978 0.0458128 0.0
C_ C_ 0.0493374 0.837061 0.0418082 0.0
C_ C_ 0.0365293 0.863762 0.0625518 0.0
C_ C_ 0.0721194 0.872661 0.0868041 0.0
C_ C_ 0.120502 0.855885 0.0885867 0.0
C_ C_ 0.134171 0.83162 0.067179 0.0
C_ C_ 0.155043 0.882041 0.101217 0.0
C_ C_ 0.0797246 0.906068 0.0998867 0.0
C_ C_ 0.195973 0.990856 0.145818 0.0
C_ C_ 0.175375 0.968236 0.122241 0.0
C_ C_ 0.148091 0.936378 0.130222 0.0
C_ C_ 0.151534 0.923987 0.159696 0.0
C_ C_ 0.173205 0.945953 0.182225 0.0
C_ C_ 0.299219 0.784337 0.0834458 0.0
C_ C_ 0.329577 0.792619 0.111108 0.0
C_ C_ 0.0520212 0.784941 0.113017 0.0
C_ C_ 0.0791568 0.790468 0.140041 0.0
C_ C_ 0.0541423 0.80659 0.164137 0.0
C_ C_ 0.335176 0.815609 0.161745 0.0
C_ C_ 0.306803 0.810873 0.135165 0.0
C_ C_ 0.0799767 0.82877 0.186292 0.0
C_ C_ 0.332982 0.845253 0.18114 0.0
C_ C_ 0.0970342 0.908174 0.261065 0.0
C_ C_ 0.0809354 0.87867 0.243427 0.0
C_ C_ 0.0597386 0.883354 0.214974 0.0
C_ C_ 0.0441177 0.916678 0.207792 0.0
C_ C_ 0.0570812 0.945297 0.227803 0.0
N_ N_ 0.191311 0.718454 0.0686517 0.0
N_ N_ 0.127823 0.647013 0.133312 0.0
N_ N_ 0.0447397 0.602835 0.053096 0.0
N_ N_ 0.0839723 0.688803 0.995939 0.0
N_ N_ 0.13881 0.524681 0.323608 0.0
N_ N_ 0.195234 0.594887 0.394449 0.0
N_ N_ 0.288357 0.648833 0.303352 0.0
N_ N_ 0.247566 0.559078 0.249819 0.0
N_ N_ 0.140942 0.783074 0.429894 0.0
N_ N_ 0.205947 0.859535 0.369079 0.0
N_ N_ 0.286537 0.897008 0.445452 0.0
N_ N_ 0.248683 0.810665 0.502651 0.0
N_ N_ 0.18965 0.980469 0.175242 0.0
N_ N_ 0.130623 0.912611 0.107942 0.0
N_ N_ 0.0465351 0.853558 0.196083 0.0
N_ N_ 0.0881614 0.941298 0.252351 0.0
O_ O_ 0.131222 0.516148 0.223294 0.0
O_ O_ 0.083728 0.540056 0.25752 0.0
O_ O_ 0.0416855 0.665305 0.132133 0.0
O_ O_ 0.201401 0.615573 0.145497 0.0
O_ O_ 0.260998 0.554868 0.174548 0.0
O_ O_ 0.310208 0.511267 0.184313 0.0
O_ O_ 0.293757 0.617588 0.0685345 0.0
O_ O_ 0.109828 0.564906 0.0432148 0.0
O_ O_ 0.205191 0.737445 0.47199 0.0
O_ O_ 0.248096 0.713759 0.0006862 0.0
O_ O_ 0.25464 0.55918 0.418731 0.0
O_ O_ 0.132535 0.638624 0.393278 0.0
O_ O_ 0.0732755 0.699092 0.422929 0.0
O_ O_ 0.0229411 0.740953 0.433042 0.0
O_ O_ 0.0354826 0.632105 0.321748 0.0
O_ O_ 0.205166 0.673577 0.30553 0.0
O_ O_ 0.204594 0.990751 0.28374 0.0
O_ O_ 0.258209 0.972603 0.247978 0.0
O_ O_ 0.292685 0.847094 0.36616 0.0
O_ O_ 0.125005 0.884443 0.358001 0.0
O_ O_ 0.0734573 0.95089 0.328366 0.0
O_ O_ 0.0220804 0.993076 0.317261 0.0
O_ O_ 0.045289 0.892115 0.438849 0.0
O_ O_ 0.212456 0.929225 0.451009 0.0
O_ O_ 0.135734 0.763851 0.0365772 0.0
O_ O_ 0.075531 0.780551 0.499347 0.0
O_ O_ 0.0515706 0.933259 0.0922646 0.0
O_ O_ 0.200004 0.873759 0.114815 0.0
O_ O_ 0.255404 0.798116 0.0786968 0.0
O_ O_ 0.31168 0.760357 0.0644042 0.0
O_ O_ 0.291446 0.862267 0.186188 0.0
O_ O_ 0.133248 0.835705 0.185509 0.0
Cd Cd 0.230713 0.514547 0.714155 0.0
Cd Cd 0.102047 0.737883 0.963026 0.0
Cd Cd 0.106965 0.989886 0.787498 0.0
Cd Cd 0.235451 0.764446 0.53659 0.0
H_ H_ 0.0211853 0.584298 0.728011 0.0
H_ H_ 0.338772 0.63339 0.694217 0.0
H_ H_ 0.16592 0.564916 0.680862 0.0
H_ H_ 0.200235 0.765915 0.606916 0.0
H_ H_ 0.162296 0.725898 0.643968 0.0
H_ H_ 0.139104 0.6442 0.577042 0.0
H_ H_ 0.189848 0.683114 0.541694 0.0
H_ H_ 0.0623043 0.509131 0.649339 0.0
H_ H_ 0.113597 0.524758 0.604921 0.0
H_ H_ 0.269056 0.574613 0.615797 0.0
H_ H_ 0.101085 0.649745 0.963399 0.0
H_ H_ 0.101513 0.60153 0.500955 0.0
H_ H_ 0.0191259 0.669208 0.558365 0.0
H_ H_ 0.0410339 0.72055 0.523335 0.0
H_ H_ 0.316975 0.67222 0.975513 0.0
H_ H_ 0.993985 0.616353 0.945032 0.0
H_ H_ 0.175043 0.687343 0.924828 0.0
H_ H_ 0.131541 0.988274 0.858623 0.0
H_ H_ 0.206065 0.535062 0.88376 0.0
H_ H_ 0.163303 0.619487 0.827232 0.0
H_ H_ 0.105339 0.572568 0.798091 0.0
H_ H_ 0.267521 0.732832 0.903977 0.0
H_ H_ 0.212068 0.718096 0.859843 0.0
H_ H_ 0.0637373 0.678212 0.86766 0.0
H_ H_ 0.227891 0.599677 0.713154 0.0
H_ H_ 0.251322 0.652156 0.745401 0.0
H_ H_ 0.304645 0.579971 0.810018 0.0
H_ H_ 0.28499 0.53083 0.778508 0.0
H_ H_ 0.310849 0.913665 0.764635 0.0
H_ H_ 0.992198 0.866007 0.804584 0.0
H_ H_ 0.162242 0.930753 0.810581 0.0
H_ H_ 0.145401 0.738781 0.897113 0.0
H_ H_ 0.187189 0.780363 0.860111 0.0
H_ H_ 0.185514 0.868738 0.921312 0.0
H_ H_ 0.135188 0.82844 0.957021 0.0
H_ H_ 0.262354 0.977684 0.843711 0.0
H_ H_ 0.214351 0.969906 0.892902 0.0
H_ H_ 0.052524 0.913471 0.876782 0.0
H_ H_ 0.212011 0.847624 0.532646 0.0
H_ H_ 0.224597 0.893283 0.996882 0.0
H_ H_ 0.315299 0.830357 0.936412 0.0
H_ H_ 0.297322 0.777409 0.972451 0.0
H_ H_ 0.0103948 0.82382 0.528704 0.0
H_ H_ 0.338719 0.883472 0.555635 0.0
H_ H_ 0.163187 0.81219 0.568375 0.0
H_ H_ 0.176688 0.512904 0.648235 0.0
H_ H_ 0.121447 0.965614 0.614917 0.0
H_ H_ 0.178314 0.882901 0.671741 0.0
H_ H_ 0.214709 0.92812 0.703757 0.0
H_ H_ 0.0698666 0.770164 0.596579 0.0
H_ H_ 0.122364 0.79193 0.640493 0.0
H_ H_ 0.273724 0.826131 0.629914 0.0
H_ H_ 0.0933091 0.902718 0.787252 0.0
H_ H_ 0.0782 0.85255 0.753047 0.0
H_ H_ 0.0385941 0.921353 0.681296 0.0
H_ H_ 0.055582 0.974513 0.71716 0.0
C_ C_ 0.105959 0.538678 0.725956 0.0
C_ C_ 0.0938559 0.568158 0.705788 0.0
C_ C_ 0.0496033 0.589559 0.710523 0.0
C_ C_ 0.03799 0.614955 0.688246 0.0
C_ C_ 0.0701503 0.620596 0.663857 0.0
C_ C_ 0.115059 0.60113 0.660309 0.0
C_ C_ 0.129303 0.57739 0.681997 0.0
C_ C_ 0.151707 0.623505 0.6445 0.0
C_ C_ 0.0799878 0.652405 0.649079 0.0
C_ C_ 0.188522 0.739096 0.601 0.0
C_ C_ 0.163904 0.715976 0.622064 0.0
C_ C_ 0.151797 0.678255 0.615499 0.0
C_ C_ 0.155046 0.668754 0.5851 0.0
C_ C_ 0.18008 0.692353 0.563872 0.0
C_ C_ 0.302588 0.53598 0.667115 0.0
C_ C_ 0.332137 0.544555 0.639452 0.0
C_ C_ 0.0469596 0.528425 0.634386 0.0
C_ C_ 0.0748803 0.533391 0.606268 0.0
C_ C_ 0.051547 0.555403 0.584366 0.0
C_ C_ 0.336619 0.566624 0.58724 0.0
C_ C_ 0.309905 0.562729 0.614268 0.0
C_ C_ 0.0795449 0.57864 0.565482 0.0
C_ C_ 0.333232 0.596726 0.569121 0.0
C_ C_ 0.088724 0.65501 0.986193 0.0
C_ C_ 0.0863909 0.626585 0.506956 0.0
C_ C_ 0.0585279 0.632372 0.533547 0.0
C_ C_ 0.0395132 0.66597 0.538581 0.0
C_ C_ 0.0563625 0.69478 0.519865 0.0
C_ C_ 0.224759 0.710834 0.975661 0.0
C_ C_ 0.238143 0.682741 0.955475 0.0
C_ C_ 0.287836 0.66589 0.958509 0.0
C_ C_ 0.293952 0.633173 0.941431 0.0
C_ C_ 0.25264 0.621222 0.921841 0.0
C_ C_ 0.205786 0.637245 0.921313 0.0
C_ C_ 0.201069 0.669973 0.934537 0.0
C_ C_ 0.186269 0.629702 0.893218 0.0
C_ C_ 0.260581 0.603897 0.894923 0.0
C_ C_ 0.168336 0.520372 0.842945 0.0
C_ C_ 0.197183 0.544264 0.861267 0.0
C_ C_ 0.197556 0.580887 0.855246 0.0
C_ C_ 0.165805 0.590793 0.83136 0.0
C_ C_ 0.136344 0.565734 0.813403 0.0
C_ C_ 0.0325729 0.714429 0.916097 0.0
C_ C_ 0.0014779 0.706845 0.888831 0.0
C_ C_ 0.28184 0.717381 0.886665 0.0
C_ C_ 0.253582 0.711378 0.860169 0.0
C_ C_ 0.278652 0.694062 0.836172 0.0
C_ C_ 0.994969 0.681226 0.83991 0.0
C_ C_ 0.0249038 0.687927 0.864708 0.0
C_ C_ 0.253026 0.674218 0.81413 0.0
C_ C_ 0.00122573 0.654166 0.819898 0.0
C_ C_ 0.239129 0.595256 0.73604 0.0
C_ C_ 0.256458 0.625139 0.753729 0.0
C_ C_ 0.273519 0.619618 0.782764 0.0
C_ C_ 0.284598 0.585258 0.790471 0.0
C_ C_ 0.274284 0.556308 0.77105 0.0
C_ C_ 0.226504 0.957332 0.767887 0.0
C_ C_ 0.234866 0.925034 0.785559 0.0
C_ C_ 0.280235 0.905635 0.781554 0.0
C_ C_ 0.290322 0.877917 0.80267 0.0
C_ C_ 0.246185 0.863296 0.820127 0.0
C_ C_ 0.20069 0.88019 0.822501 0.0
C_ C_ 0.194758 0.912375 0.806726 0.0
C_ C_ 0.174919 0.87147 0.850157 0.0
C_ C_ 0.249167 0.845063 0.847538 0.0
C_ C_ 0.156024 0.767099 0.903322 0.0
C_ C_ 0.179472 0.790311 0.881641 0.0
C_ C_ 0.188605 0.827109 0.888486 0.0
C_ C_ 0.174086 0.839593 0.916108 0.0
C_ C_ 0.14991 0.816405 0.936482 0.0
C_ C_ 0.0309056 0.961204 0.83162 0.0
C_ C_ 0.99853 0.951895 0.859012 0.0
C_ C_ 0.283943 0.967787 0.86456 0.0
C_ C_ 0.255225 0.961603 0.891865 0.0
C_ C_ 0.281404 0.946203 0.916382 0.0
C_ C_ 0.994971 0.929009 0.909242 0.0
C_ C_ 0.0227537 0.933106 0.882645 0.0
C_ C_ 0.256581 0.924026 0.938309 0.0
C_ C_ 0.00109677 0.903898 0.929461 0.0
C_ C_ 0.229188 0.842502 0.50995 0.0
C_ C_ 0.238525 0.867775 0.989423 0.0
C_ C_ 0.273659 0.866134 0.964282 0.0
C_ C_ 0.290461 0.832859 0.955999 0.0
C_ C_ 0.281314 0.803071 0.976872 0.0
C_ C_ 0.102886 0.785441 0.522812 0.0
C_ C_ 0.0912596 0.816235 0.542935 0.0
C_ C_ 0.0426057 0.834413 0.541873 0.0
C_ C_ 0.0364341 0.864926 0.560273 0.0
C_ C_ 0.0794061 0.877108 0.577313 0.0
C_ C_ 0.123821 0.858257 0.579955 0.0
C_ C_ 0.127485 0.825948 0.564695 0.0
C_ C_ 0.149252 0.868668 0.607384 0.0
C_ C_ 0.0768921 0.896934 0.604155 0.0
C_ C_ 0.158374 0.98111 0.655969 0.0
C_ C_ 0.137241 0.956179 0.63545 0.0
C_ C_ 0.142202 0.919438 0.641091 0.0
C_ C_ 0.171128 0.910109 0.667 0.0
C_ C_ 0.193843 0.936431 0.685072 0.0
C_ C_ 0.307611 0.790599 0.581523 0.0
C_ C_ 0.333806 0.795116 0.609858 0.0
C_ C_ 0.0512213 0.784065 0.613747 0.0
C_ C_ 0.0814599 0.792346 0.640543 0.0
C_ C_ 0.0550354 0.807844 0.663963 0.0
C_ C_ 0.335885 0.816592 0.661876 0.0
C_ C_ 0.311046 0.814746 0.633072 0.0
C_ C_ 0.0808508 0.830736 0.684791 0.0
C_ C_ 0.331542 0.845147 0.680965 0.0
C_ C_ 0.0892998 0.907678 0.763173 0.0
C_ C_ 0.080835 0.878423 0.743384 0.0
C_ C_ 0.0595038 0.883891 0.715283 0.0
C_ C_ 0.0510614 0.918457 0.70517 0.0
C_ C_ 0.0634264 0.946877 0.723642 0.0
N_ N_ 0.197649 0.726801 0.571529 0.0
N_ N_ 0.130663 0.654257 0.638099 0.0
N_ N_ 0.046441 0.602507 0.553508 0.0
N_ N_ 0.0839286 0.688477 0.494518 0.0
N_ N_ 0.141868 0.531046 0.81807 0.0
N_ N_ 0.218611 0.607291 0.876968 0.0
N_ N_ 0.289073 0.650815 0.802106 0.0
N_ N_ 0.247904 0.561969 0.745701 0.0
N_ N_ 0.144792 0.780695 0.931491 0.0
N_ N_ 0.207389 0.850927 0.865355 0.0
N_ N_ 0.289212 0.898238 0.946911 0.0
N_ N_ 0.249472 0.806781 0.00106268 0.0
N_ N_ 0.185375 0.971166 0.680326 0.0
N_ N_ 0.119187 0.891826 0.62134 0.0
N_ N_ 0.0456709 0.853349 0.695203 0.0
N_ N_ 0.0854681 0.941267 0.751731 0.0
O_ O_ 0.135326 0.514677 0.716775 0.0
O_ O_ 0.0783043 0.532542 0.750145 0.0
O_ O_ 0.05645 0.680746 0.658933 0.0
O_ O_ 0.20269 0.620781 0.645367 0.0
O_ O_ 0.26552 0.555539 0.676828 0.0
O_ O_ 0.307521 0.507632 0.681536 0.0
O_ O_ 0.287603 0.610678 0.561018 0.0
O_ O_ 0.120594 0.568335 0.551033 0.0
O_ O_ 0.200043 0.736399 0.965901 0.0
O_ O_ 0.258337 0.716347 0.504923 0.0
O_ O_ 0.309176 0.601851 0.883834 0.0
O_ O_ 0.137015 0.633888 0.884318 0.0
O_ O_ 0.0747127 0.69797 0.922131 0.0
O_ O_ 0.0201139 0.736928 0.93555 0.0
O_ O_ 0.0462693 0.638762 0.813442 0.0
O_ O_ 0.211002 0.683962 0.79921 0.0
O_ O_ 0.204888 0.984136 0.778541 0.0
O_ O_ 0.253662 0.962589 0.744202 0.0
O_ O_ 0.292172 0.830236 0.856798 0.0
O_ O_ 0.14611 0.894289 0.862927 0.0
O_ O_ 0.0760571 0.94828 0.828503 0.0
O_ O_ 0.0217533 0.987502 0.813788 0.0
O_ O_ 0.0367464 0.879251 0.926688 0.0
O_ O_ 0.206652 0.925676 0.946668 0.0
O_ O_ 0.135242 0.761819 0.529745 0.0
O_ O_ 0.0785617 0.782219 0.00366633 0.0
O_ O_ 0.0314074 0.906765 0.615027 0.0
O_ O_ 0.198969 0.872458 0.609832 0.0
O_ O_ 0.26697 0.806137 0.575013 0.0
O_ O_ 0.318084 0.764319 0.565429 0.0
O_ O_ 0.286367 0.851569 0.693324 0.0
O_ O_ 0.120116 0.821062 0.700648 0.0
Cd Cd 0.561874 0.0125866 0.213854 0.0
Cd Cd 0.436215 0.239535 0.459994 0.0
Cd Cd 0.437766 0.48899 0.286132 0.0
Cd Cd 0.567783 0.263517 0.0351797 0.0
H_ H_ 0.380974 0.0982133 0.239894 0.0
H_ H_ 0.665108 0.122141 0.184338 0.0
H_ H_ 0.492243 0.0608476 0.176152 0.0
H_ H_ 0.526119 0.264802 0.1039 0.0
H_ H_ 0.484201 0.225995 0.14154 0.0
H_ H_ 0.478279 0.138829 0.0786789 0.0
H_ H_ 0.52623 0.182333 0.0408927 0.0
H_ H_ 0.389272 0.0129273 0.147415 0.0
H_ H_ 0.431911 0.0245494 0.0974145 0.0
H_ H_ 0.597707 0.0654817 0.114109 0.0
H_ H_ 0.436907 0.155063 0.471733 0.0
H_ H_ 0.412936 0.102077 0.996538 0.0
H_ H_ 0.364552 0.172393 0.0654191 0.0
H_ H_ 0.399843 0.223628 0.0345186 0.0
H_ H_ 0.643692 0.166792 0.479236 0.0
H_ H_ 0.316776 0.107567 0.457191 0.0
H_ H_ 0.494968 0.179539 0.433246 0.0
H_ H_ 0.496045 0.492306 0.34952 0.0
H_ H_ 0.538682 0.0266779 0.384788 0.0
H_ H_ 0.512234 0.113123 0.323224 0.0
H_ H_ 0.47607 0.0676591 0.288618 0.0
H_ H_ 0.594281 0.219932 0.407681 0.0
H_ H_ 0.546269 0.212483 0.357587 0.0
H_ H_ 0.391292 0.173754 0.367062 0.0
H_ H_ 0.550082 0.0980842 0.218658 0.0
H_ H_ 0.573483 0.147658 0.249964 0.0
H_ H_ 0.640491 0.0784859 0.314213 0.0
H_ H_ 0.618244 0.0277351 0.278085 0.0
H_ H_ 0.657507 0.424023 0.276241 0.0
H_ H_ 0.322361 0.365813 0.310989 0.0
H_ H_ 0.498497 0.432871 0.317507 0.0
H_ H_ 0.479399 0.245781 0.392222 0.0
H_ H_ 0.530811 0.286791 0.359403 0.0
H_ H_ 0.509219 0.370033 0.420598 0.0
H_ H_ 0.480294 0.323404 0.459353 0.0
H_ H_ 0.600943 0.485604 0.346949 0.0
H_ H_ 0.542567 0.462405 0.389453 0.0
H_ H_ 0.391993 0.42911 0.385363 0.0
H_ H_ 0.555454 0.34864 0.0332839 0.0
H_ H_ 0.580547 0.398514 0.50303 0.0
H_ H_ 0.642517 0.331235 0.435852 0.0
H_ H_ 0.615965 0.278313 0.466691 0.0
H_ H_ 0.372476 0.344405 0.0147071 0.0
H_ H_ 0.677661 0.386025 0.0524075 0.0
H_ H_ 0.481954 0.306447 0.0766943 0.0
H_ H_ 0.501438 0.00732828 0.150326 0.0
H_ H_ 0.461083 0.465909 0.116489 0.0
H_ H_ 0.503656 0.379059 0.174046 0.0
H_ H_ 0.531584 0.423998 0.213524 0.0
H_ H_ 0.398952 0.269092 0.101718 0.0
H_ H_ 0.45105 0.286237 0.146963 0.0
H_ H_ 0.609594 0.330202 0.129531 0.0
H_ H_ 0.421269 0.406707 0.294337 0.0
H_ H_ 0.40238 0.350303 0.2623 0.0
H_ H_ 0.377003 0.417156 0.184668 0.0
H_ H_ 0.388014 0.469067 0.220149 0.0
C_ C_ 0.442148 0.040087 0.228531 0.0
C_ C_ 0.435321 0.0730808 0.210438 0.0
C_ C_ 0.398688 0.0978153 0.218597 0.0
C_ C_ 0.380953 0.121947 0.197915 0.0
C_ C_ 0.407479 0.125719 0.170755 0.0
C_ C_ 0.444415 0.102087 0.16197 0.0
C_ C_ 0.461181 0.0764527 0.182639 0.0
C_ C_ 0.477557 0.121366 0.142224 0.0
C_ C_ 0.415492 0.156388 0.152975 0.0
C_ C_ 0.515 0.238022 0.0974198 0.0
C_ C_ 0.489329 0.215449 0.119022 0.0
C_ C_ 0.477765 0.179315 0.113956 0.0
C_ C_ 0.489459 0.166583 0.0843529 0.0
C_ C_ 0.511343 0.191251 0.0626132 0.0
C_ C_ 0.632553 0.0347774 0.16544 0.0
C_ C_ 0.662874 0.0414936 0.137965 0.0
C_ C_ 0.376162 0.0326524 0.131827 0.0
C_ C_ 0.399183 0.0391377 0.103655 0.0
C_ C_ 0.373468 0.0572217 0.0817471 0.0
C_ C_ 0.670093 0.0684022 0.0894417 0.0
C_ C_ 0.640101 0.0617121 0.11521 0.0
C_ C_ 0.397575 0.0760998 0.0575646 0.0
C_ C_ 0.665707 0.0967352 0.0702427 0.0
C_ C_ 0.432021 0.164316 0.494793 0.0
C_ C_ 0.408187 0.128003 0.00453512 0.0
C_ C_ 0.384005 0.133157 0.0324465 0.0
C_ C_ 0.379672 0.168057 0.0421127 0.0
C_ C_ 0.407476 0.196229 0.0261677 0.0
C_ C_ 0.557776 0.20742 0.477427 0.0
C_ C_ 0.565859 0.175297 0.459099 0.0
C_ C_ 0.613588 0.158225 0.462323 0.0
C_ C_ 0.623375 0.128155 0.444335 0.0
C_ C_ 0.580064 0.1134 0.426928 0.0
C_ C_ 0.534256 0.132144 0.421916 0.0
C_ C_ 0.52788 0.163429 0.437544 0.0
C_ C_ 0.514604 0.124557 0.392856 0.0
C_ C_ 0.583327 0.0933045 0.40134 0.0
C_ C_ 0.492905 0.014125 0.34574 0.0
C_ C_ 0.514238 0.0377103 0.367528 0.0
C_ C_ 0.524368 0.0743495 0.359022 0.0
C_ C_ 0.506146 0.0848234 0.330624 0.0
C_ C_ 0.487647 0.0594397 0.310197 0.0
C_ C_ 0.36271 0.212229 0.414227 0.0
C_ C_ 0.331194 0.202568 0.387971 0.0
C_ C_ 0.614611 0.215522 0.386646 0.0
C_ C_ 0.587518 0.209518 0.359783 0.0
C_ C_ 0.614249 0.19667 0.334931 0.0
C_ C_ 0.31712 0.164568 0.344847 0.0
C_ C_ 0.349622 0.178917 0.366963 0.0
C_ C_ 0.588615 0.170989 0.315104 0.0
C_ C_ 0.331138 0.155558 0.315702 0.0
C_ C_ 0.569923 0.0936353 0.237832 0.0
C_ C_ 0.583248 0.121743 0.256717 0.0
C_ C_ 0.606509 0.116423 0.284828 0.0
C_ C_ 0.618902 0.0822324 0.292995 0.0
C_ C_ 0.606908 0.0541255 0.273423 0.0
C_ C_ 0.565929 0.460739 0.272002 0.0
C_ C_ 0.573347 0.42836 0.290235 0.0
C_ C_ 0.621701 0.411507 0.287951 0.0
C_ C_ 0.627437 0.381775 0.306802 0.0
C_ C_ 0.584345 0.365598 0.32229 0.0
C_ C_ 0.536503 0.382139 0.323673 0.0
C_ C_ 0.533607 0.415592 0.310744 0.0
C_ C_ 0.51604 0.373196 0.35178 0.0
C_ C_ 0.590731 0.349637 0.349484 0.0
C_ C_ 0.495077 0.271725 0.399993 0.0
C_ C_ 0.523994 0.294198 0.381765 0.0
C_ C_ 0.532533 0.330145 0.389313 0.0
C_ C_ 0.510023 0.341434 0.415769 0.0
C_ C_ 0.49214 0.316026 0.437014 0.0
C_ C_ 0.367146 0.470097 0.33728 0.0
C_ C_ 0.3344 0.462201 0.364579 0.0
C_ C_ 0.616222 0.467831 0.363591 0.0
C_ C_ 0.586686 0.459254 0.389578 0.0
C_ C_ 0.612223 0.442183 0.413785 0.0
C_ C_ 0.331466 0.439781 0.415033 0.0
C_ C_ 0.358762 0.444806 0.389138 0.0
C_ C_ 0.587821 0.421551 0.435373 0.0
C_ C_ 0.334394 0.4102 0.433798 0.0
C_ C_ 0.5667 0.34371 0.0106853 0.0
C_ C_ 0.59043 0.372903 0.495775 0.0
C_ C_ 0.612743 0.368889 0.46621 0.0
C_ C_ 0.621734 0.334828 0.456486 0.0
C_ C_ 0.609263 0.304696 0.4743 0.0
C_ C_ 0.444674 0.292538 0.0202075 0.0
C_ C_ 0.432133 0.323533 0.0406129 0.0
C_ C_ 0.394966 0.347974 0.0329428 0.0
C_ C_ 0.387296 0.377437 0.051505 0.0
C_ C_ 0.426725 0.386674 0.0735235 0.0
C_ C_ 0.460496 0.361442 0.0820001 0.0
C_ C_ 0.456577 0.326946 0.0687743 0.0
C_ C_ 0.473157 0.367188 0.111296 0.0
C_ C_ 0.418416 0.406515 0.0990152 0.0
C_ C_ 0.497385 0.480073 0.158298 0.0
C_ C_ 0.473484 0.456172 0.138345 0.0
C_ C_ 0.474374 0.420222 0.143522 0.0
C_ C_ 0.494882 0.408177 0.17144 0.0
C_ C_ 0.514855 0.433609 0.192235 0.0
C_ C_ 0.638957 0.288526 0.0823318 0.0
C_ C_ 0.66674 0.294743 0.110239 0.0
C_ C_ 0.384191 0.287662 0.118076 0.0
C_ C_ 0.410015 0.293005 0.145009 0.0
C_ C_ 0.381722 0.306229 0.170055 0.0
C_ C_ 0.671117 0.319787 0.15977 0.0
C_ C_ 0.645877 0.316862 0.132436 0.0
C_ C_ 0.404169 0.324868 0.193791 0.0
C_ C_ 0.66838 0.348596 0.179177 0.0
C_ C_ 0.412088 0.407963 0.270182 0.0
C_ C_ 0.398659 0.376825 0.253312 0.0
C_ C_ 0.382958 0.381248 0.222439 0.0
C_ C_ 0.385274 0.414155 0.209357 0.0
C_ C_ 0.396355 0.443666 0.228001 0.0
N_ N_ 0.520248 0.227132 0.0690161 0.0
N_ N_ 0.460576 0.154618 0.137703 0.0
N_ N_ 0.36661 0.101883 0.0497992 0.0
N_ N_ 0.424687 0.190346 0.998351 0.0
N_ N_ 0.476297 0.0256842 0.318573 0.0
N_ N_ 0.545753 0.100419 0.380692 0.0
N_ N_ 0.621326 0.146862 0.304567 0.0
N_ N_ 0.580631 0.0604037 0.246889 0.0
N_ N_ 0.483873 0.280967 0.428627 0.0
N_ N_ 0.549745 0.355673 0.367505 0.0
N_ N_ 0.622493 0.399026 0.446933 0.0
N_ N_ 0.589409 0.309641 0.502688 0.0
N_ N_ 0.517214 0.469535 0.185118 0.0
N_ N_ 0.449491 0.395494 0.12216 0.0
N_ N_ 0.368991 0.347731 0.205511 0.0
N_ N_ 0.411148 0.44004 0.257341 0.0
O_ O_ 0.464112 0.0151805 0.217906 0.0
O_ O_ 0.411048 0.0329488 0.250216 0.0
O_ O_ 0.394687 0.186141 0.160972 0.0
O_ O_ 0.51706 0.107704 0.126632 0.0
O_ O_ 0.592651 0.0513303 0.171745 0.0
O_ O_ 0.641467 0.00803472 0.182707 0.0
O_ O_ 0.61722 0.105711 0.0600127 0.0
O_ O_ 0.449457 0.0803969 0.0563539 0.0
O_ O_ 0.531477 0.231741 0.466819 0.0
O_ O_ 0.590075 0.216807 0.000135541 0.0
O_ O_ 0.624947 0.0748005 0.395263 0.0
O_ O_ 0.485671 0.146229 0.377533 0.0
O_ O_ 0.402041 0.193773 0.421595 0.0
O_ O_ 0.359368 0.242246 0.427351 0.0
O_ O_ 0.379102 0.16406 0.305805 0.0
O_ O_ 0.540454 0.174331 0.303339 0.0
O_ O_ 0.53753 0.486242 0.280623 0.0
O_ O_ 0.592802 0.465854 0.249033 0.0
O_ O_ 0.638461 0.345596 0.360971 0.0
O_ O_ 0.473827 0.388131 0.363364 0.0
O_ O_ 0.412689 0.45768 0.333347 0.0
O_ O_ 0.353631 0.490841 0.317077 0.0
O_ O_ 0.367213 0.384919 0.429428 0.0
O_ O_ 0.546752 0.430701 0.451821 0.0
O_ O_ 0.474202 0.268595 0.028803 0.0
O_ O_ 0.418394 0.285723 0.494551 0.0
O_ O_ 0.373874 0.42263 0.103735 0.0
O_ O_ 0.517815 0.357382 0.123454 0.0
O_ O_ 0.599679 0.30607 0.0754501 0.0
O_ O_ 0.644785 0.259913 0.0661527 0.0
O_ O_ 0.624469 0.364032 0.184939 0.0
O_ O_ 0.456835 0.329299 0.197363 0.0
Cd Cd 0.564358 0.0127194 0.71618 0.0
Cd Cd 0.440106 0.239265 0.962036 0.0
Cd Cd 0.434688 0.489123 0.78809 0.0
Cd Cd 0.566072 0.262218 0.535667 0.0
H_ H_ 0.387388 0.102113 0.750233 0.0
H_ H_ 0.672655 0.133672 0.694896 0.0
H_ H_ 0.478513 0.0590361 0.677777 0.0
H_ H_ 0.458707 0.247628 0.579535 0.0
H_ H_ 0.43306 0.212045 0.622019 0.0
H_ H_ 0.577724 0.160261 0.616591 0.0
H_ H_ 0.596222 0.192249 0.568844 0.0
H_ H_ 0.403395 0.01875 0.648598 0.0
H_ H_ 0.461658 0.0457112 0.609999 0.0
H_ H_ 0.603238 0.0714272 0.617827 0.0
H_ H_ 0.446263 0.151927 0.967593 0.0
H_ H_ 0.426488 0.111254 0.510813 0.0
H_ H_ 0.359954 0.189573 0.567322 0.0
H_ H_ 0.369246 0.231959 0.524013 0.0
H_ H_ 0.64634 0.171702 0.976015 0.0
H_ H_ 0.328323 0.114518 0.951654 0.0
H_ H_ 0.498456 0.18163 0.933133 0.0
H_ H_ 0.49724 0.49134 0.849555 0.0
H_ H_ 0.541592 0.034319 0.885091 0.0
H_ H_ 0.496789 0.118652 0.825136 0.0
H_ H_ 0.463453 0.0704284 0.790064 0.0
H_ H_ 0.597291 0.228864 0.905194 0.0
H_ H_ 0.542753 0.209718 0.861361 0.0
H_ H_ 0.400849 0.175918 0.866359 0.0
H_ H_ 0.550583 0.0986491 0.716914 0.0
H_ H_ 0.576059 0.150324 0.749789 0.0
H_ H_ 0.643795 0.0789107 0.811121 0.0
H_ H_ 0.619268 0.0285715 0.777467 0.0
H_ H_ 0.649322 0.425158 0.780722 0.0
H_ H_ 0.211376 0.337355 0.767811 0.0
H_ H_ 0.488418 0.419679 0.807036 0.0
H_ H_ 0.491751 0.240837 0.897141 0.0
H_ H_ 0.545424 0.284054 0.865097 0.0
H_ H_ 0.505073 0.367524 0.926413 0.0
H_ H_ 0.460696 0.321144 0.960023 0.0
H_ H_ 0.594583 0.467854 0.842229 0.0
H_ H_ 0.542658 0.459329 0.890851 0.0
H_ H_ 0.385087 0.415761 0.879743 0.0
H_ H_ 0.559865 0.344242 0.534124 0.0
H_ H_ 0.566572 0.40141 0.999196 0.0
H_ H_ 0.635407 0.331313 0.933733 0.0
H_ H_ 0.623417 0.281457 0.971166 0.0
H_ H_ 0.433557 0.353757 0.489771 0.0
H_ H_ 0.673823 0.384274 0.554375 0.0
H_ H_ 0.460125 0.305792 0.576646 0.0
H_ H_ 0.505416 0.00760572 0.651841 0.0
H_ H_ 0.470679 0.473591 0.612101 0.0
H_ H_ 0.591812 0.400188 0.637368 0.0
H_ H_ 0.604963 0.436933 0.683368 0.0
H_ H_ 0.369926 0.249432 0.610952 0.0
H_ H_ 0.440425 0.270211 0.649291 0.0
H_ H_ 0.604189 0.321848 0.630763 0.0
H_ H_ 0.365774 0.414592 0.784832 0.0
H_ H_ 0.343813 0.362644 0.752546 0.0
H_ H_ 0.460458 0.402101 0.687968 0.0
H_ H_ 0.491595 0.449447 0.726655 0.0
C_ C_ 0.44176 0.0435898 0.732057 0.0
C_ C_ 0.434378 0.0754399 0.714737 0.0
C_ C_ 0.405959 0.10418 0.728206 0.0
C_ C_ 0.408652 0.138501 0.713295 0.0
C_ C_ 0.426164 0.140626 0.683694 0.0
C_ C_ 0.451441 0.112023 0.670619 0.0
C_ C_ 0.456806 0.079417 0.686095 0.0
C_ C_ 0.487934 0.126546 0.650279 0.0
C_ C_ 0.450515 0.171851 0.669304 0.0
C_ C_ 0.483745 0.227946 0.585213 0.0
C_ C_ 0.472236 0.210484 0.612726 0.0
C_ C_ 0.503331 0.184604 0.623101 0.0
C_ C_ 0.550221 0.178901 0.607618 0.0
C_ C_ 0.560757 0.197223 0.580842 0.0
C_ C_ 0.636653 0.0377021 0.668 0.0
C_ C_ 0.665246 0.0438251 0.639385 0.0
C_ C_ 0.385776 0.0317523 0.631028 0.0
C_ C_ 0.419113 0.0473393 0.608376 0.0
C_ C_ 0.395739 0.0666805 0.584818 0.0
C_ C_ 0.671057 0.0689526 0.588933 0.0
C_ C_ 0.642753 0.0625843 0.615948 0.0
C_ C_ 0.423271 0.0954654 0.570825 0.0
C_ C_ 0.666976 0.0970849 0.57046 0.0
C_ C_ 0.43063 0.156169 0.988789 0.0
C_ C_ 0.421488 0.139011 0.51745 0.0
C_ C_ 0.398832 0.149196 0.544492 0.0
C_ C_ 0.380826 0.183946 0.547265 0.0
C_ C_ 0.390133 0.208252 0.523411 0.0
C_ C_ 0.560118 0.209158 0.977404 0.0
C_ C_ 0.569887 0.177863 0.958332 0.0
C_ C_ 0.617555 0.16026 0.961589 0.0
C_ C_ 0.62625 0.132492 0.941446 0.0
C_ C_ 0.581997 0.117303 0.923953 0.0
C_ C_ 0.536123 0.133727 0.922391 0.0
C_ C_ 0.531017 0.166061 0.93837 0.0
C_ C_ 0.514217 0.125887 0.893815 0.0
C_ C_ 0.587396 0.0996128 0.896819 0.0
C_ C_ 0.501705 0.0190692 0.843733 0.0
C_ C_ 0.524666 0.0435488 0.86398 0.0
C_ C_ 0.528134 0.0801171 0.8566 0.0
C_ C_ 0.50121 0.0903947 0.831036 0.0
C_ C_ 0.484918 0.0642367 0.809462 0.0
C_ C_ 0.372073 0.219419 0.911125 0.0
C_ C_ 0.344102 0.212314 0.882134 0.0
C_ C_ 0.613665 0.213671 0.887759 0.0
C_ C_ 0.58546 0.205672 0.862181 0.0
C_ C_ 0.612603 0.193167 0.837226 0.0
C_ C_ 0.339989 0.183088 0.833801 0.0
C_ C_ 0.368222 0.189653 0.860875 0.0
C_ C_ 0.588683 0.170062 0.814423 0.0
C_ C_ 0.342896 0.151606 0.817961 0.0
C_ C_ 0.564713 0.0942501 0.739598 0.0
C_ C_ 0.587352 0.124204 0.754784 0.0
C_ C_ 0.611351 0.118221 0.783234 0.0
C_ C_ 0.620481 0.0831334 0.792079 0.0
C_ C_ 0.603222 0.0557886 0.773912 0.0
C_ C_ 0.555428 0.456529 0.774655 0.0
C_ C_ 0.564783 0.422667 0.791906 0.0
C_ C_ 0.616648 0.409851 0.791327 0.0
C_ C_ 0.624669 0.38015 0.809201 0.0
C_ C_ 0.584493 0.363174 0.827281 0.0
C_ C_ 0.533556 0.375667 0.825053 0.0
C_ C_ 0.525144 0.406182 0.807678 0.0
C_ C_ 0.513245 0.370545 0.853544 0.0
C_ C_ 0.592476 0.351085 0.855093 0.0
C_ C_ 0.504209 0.269147 0.90548 0.0
C_ C_ 0.531477 0.293358 0.887566 0.0
C_ C_ 0.530348 0.329351 0.893911 0.0
C_ C_ 0.505781 0.340199 0.920865 0.0
C_ C_ 0.485179 0.314328 0.941053 0.0
C_ C_ 0.366725 0.468301 0.83853 0.0
C_ C_ 0.339215 0.461143 0.86766 0.0
C_ C_ 0.61411 0.461973 0.862206 0.0
C_ C_ 0.585616 0.457846 0.888822 0.0
C_ C_ 0.611983 0.443367 0.913657 0.0
C_ C_ 0.330105 0.428934 0.914755 0.0
C_ C_ 0.356648 0.435912 0.887716 0.0
C_ C_ 0.587597 0.422888 0.936173 0.0
C_ C_ 0.328926 0.397406 0.930577 0.0
C_ C_ 0.579687 0.342516 0.512637 0.0
C_ C_ 0.580298 0.374573 0.992619 0.0
C_ C_ 0.607864 0.370022 0.965695 0.0
C_ C_ 0.622768 0.336763 0.957139 0.0
C_ C_ 0.609084 0.306578 0.975587 0.0
C_ C_ 0.449271 0.292615 0.516988 0.0
C_ C_ 0.448624 0.32704 0.532166 0.0
C_ C_ 0.4399 0.35706 0.513849 0.0
C_ C_ 0.448408 0.390619 0.52603 0.0
C_ C_ 0.455664 0.395532 0.557399 0.0
C_ C_ 0.457197 0.363706 0.576497 0.0
C_ C_ 0.454319 0.329448 0.562786 0.0
C_ C_ 0.492062 0.374965 0.599085 0.0
C_ C_ 0.48859 0.423538 0.570904 0.0
C_ C_ 0.509936 0.481802 0.653075 0.0
C_ C_ 0.497088 0.46087 0.627777 0.0
C_ C_ 0.528199 0.431692 0.62138 0.0
C_ C_ 0.569294 0.423752 0.64158 0.0
C_ C_ 0.57374 0.441657 0.668513 0.0
C_ C_ 0.634594 0.288588 0.582755 0.0
C_ C_ 0.666794 0.296539 0.610274 0.0
C_ C_ 0.371237 0.274585 0.620318 0.0
C_ C_ 0.403831 0.285829 0.645475 0.0
C_ C_ 0.404813 0.319539 0.656341 0.0
C_ C_ 0.670979 0.320238 0.660385 0.0
C_ C_ 0.643919 0.315918 0.633823 0.0
C_ C_ 0.403616 0.326169 0.687809 0.0
C_ C_ 0.666145 0.346486 0.680636 0.0
C_ C_ 0.384881 0.413037 0.763041 0.0
C_ C_ 0.371093 0.384047 0.743884 0.0
C_ C_ 0.397971 0.381323 0.716321 0.0
C_ C_ 0.439148 0.405021 0.70899 0.0
C_ C_ 0.455163 0.432853 0.729538 0.0
N_ N_ 0.528833 0.222785 0.571296 0.0
N_ N_ 0.487426 0.162418 0.649478 0.0
N_ N_ 0.390774 0.122495 0.567142 0.0
N_ N_ 0.417663 0.198425 0.497982 0.0
N_ N_ 0.480139 0.0303741 0.818373 0.0
N_ N_ 0.546434 0.106162 0.877951 0.0
N_ N_ 0.623488 0.147934 0.803044 0.0
N_ N_ 0.576464 0.0607997 0.748363 0.0
N_ N_ 0.488475 0.280431 0.93397 0.0
N_ N_ 0.548296 0.355051 0.872135 0.0
N_ N_ 0.62261 0.40007 0.947249 0.0
N_ N_ 0.580306 0.311012 0.00201224 0.0
N_ N_ 0.545441 0.471226 0.673414 0.0
N_ N_ 0.512911 0.40963 0.595636 0.0
N_ N_ 0.378697 0.356948 0.694102 0.0
N_ N_ 0.422174 0.438509 0.753408 0.0
O_ O_ 0.466435 0.0180198 0.719221 0.0
O_ O_ 0.408617 0.0353839 0.753143 0.0
O_ O_ 0.451808 0.202967 0.682234 0.0
O_ O_ 0.525773 0.108669 0.636002 0.0
O_ O_ 0.590654 0.0493447 0.671486 0.0
O_ O_ 0.651346 0.0151439 0.686258 0.0
O_ O_ 0.620601 0.105535 0.56005 0.0
O_ O_ 0.475326 0.102071 0.572794 0.0
O_ O_ 0.535916 0.233501 0.967092 0.0
O_ O_ 0.584214 0.211612 0.50063 0.0
O_ O_ 0.628759 0.0833606 0.889077 0.0
O_ O_ 0.461199 0.124428 0.888179 0.0
O_ O_ 0.410939 0.20023 0.918991 0.0
O_ O_ 0.365032 0.246631 0.926297 0.0
O_ O_ 0.387572 0.136903 0.81116 0.0
O_ O_ 0.542733 0.174749 0.801654 0.0
O_ O_ 0.533085 0.48226 0.788149 0.0
O_ O_ 0.584438 0.464373 0.751196 0.0
O_ O_ 0.640981 0.353607 0.867592 0.0
O_ O_ 0.462283 0.372813 0.860173 0.0
O_ O_ 0.407304 0.452562 0.832702 0.0
O_ O_ 0.356382 0.49424 0.821806 0.0
O_ O_ 0.371204 0.380866 0.937222 0.0
O_ O_ 0.545342 0.43125 0.95039 0.0
O_ O_ 0.471941 0.266583 0.527823 0.0
O_ O_ 0.415819 0.286922 0.997671 0.0
O_ O_ 0.514105 0.449127 0.554697 0.0
O_ O_ 0.5105 0.351495 0.617626 0.0
O_ O_ 0.588978 0.299501 0.578385 0.0
O_ O_ 0.650423 0.26889 0.56153 0.0
O_ O_ 0.619818 0.352828 0.692534 0.0
O_ O_ 0.406115 0.299704 0.707393 0.0
Cd Cd 0.563851 0.510864 0.215218 0.0
Cd Cd 0.436848 0.738663 0.464398 0.0
Cd Cd 0.437465 0.986544 0.28485 0.0
Cd Cd 0.563178 0.761326 0.0356052 0.0
H_ H_ 0.353468 0.581137 0.227695 0.0
H_ H_ 0.667435 0.627626 0.18903 0.0
H_ H_ 0.499773 0.565503 0.180139 0.0
H_ H_ 0.503426 0.757758 0.0987177 0.0
H_ H_ 0.458233 0.71469 0.133378 0.0
H_ H_ 0.503648 0.629654 0.0751225 0.0
H_ H_ 0.533965 0.675401 0.0375602 0.0
H_ H_ 0.401691 0.518597 0.154286 0.0
H_ H_ 0.455974 0.538922 0.109156 0.0
H_ H_ 0.603882 0.574386 0.118771 0.0
H_ H_ 0.450807 0.653701 0.467835 0.0
H_ H_ 0.423899 0.601005 0.999146 0.0
H_ H_ 0.36535 0.673005 0.0652761 0.0
H_ H_ 0.382406 0.722773 0.0300675 0.0
H_ H_ 0.651324 0.673329 0.472915 0.0
H_ H_ 0.302547 0.603687 0.462562 0.0
H_ H_ 0.49937 0.684019 0.430858 0.0
H_ H_ 0.488864 0.986669 0.348882 0.0
H_ H_ 0.542434 0.536334 0.383257 0.0
H_ H_ 0.506955 0.618807 0.322083 0.0
H_ H_ 0.461221 0.574786 0.289043 0.0
H_ H_ 0.598421 0.731058 0.404267 0.0
H_ H_ 0.548708 0.719104 0.35642 0.0
H_ H_ 0.392623 0.672057 0.370021 0.0
H_ H_ 0.5579 0.596631 0.216056 0.0
H_ H_ 0.577762 0.649242 0.248605 0.0
H_ H_ 0.648715 0.580431 0.310941 0.0
H_ H_ 0.624214 0.529636 0.27787 0.0
H_ H_ 0.641341 0.91367 0.269502 0.0
H_ H_ 0.323277 0.871691 0.306356 0.0
H_ H_ 0.50529 0.938042 0.324062 0.0
H_ H_ 0.502637 0.740836 0.403277 0.0
H_ H_ 0.546344 0.785023 0.368103 0.0
H_ H_ 0.497437 0.869296 0.424512 0.0
H_ H_ 0.463477 0.82471 0.461763 0.0
H_ H_ 0.599789 0.985082 0.348161 0.0
H_ H_ 0.542283 0.960972 0.39129 0.0
H_ H_ 0.391508 0.920935 0.379627 0.0
H_ H_ 0.561468 0.84723 0.0346332 0.0
H_ H_ 0.575854 0.899127 0.500865 0.0
H_ H_ 0.641542 0.829491 0.43617 0.0
H_ H_ 0.619284 0.778251 0.469786 0.0
H_ H_ 0.349877 0.827157 0.0270054 0.0
H_ H_ 0.669757 0.880581 0.0581061 0.0
H_ H_ 0.498892 0.815178 0.0702528 0.0
H_ H_ 0.500395 0.508413 0.152338 0.0
H_ H_ 0.455477 0.964791 0.117439 0.0
H_ H_ 0.499181 0.879969 0.175644 0.0
H_ H_ 0.53885 0.925225 0.2109 0.0
H_ H_ 0.402979 0.77026 0.0952161 0.0
H_ H_ 0.455113 0.786785 0.141306 0.0
H_ H_ 0.604364 0.824876 0.131063 0.0
H_ H_ 0.445366 0.903364 0.28328 0.0
H_ H_ 0.423131 0.850974 0.251095 0.0
H_ H_ 0.360554 0.920902 0.185192 0.0
H_ H_ 0.381605 0.971767 0.219611 0.0
C_ C_ 0.43868 0.539998 0.227052 0.0
C_ C_ 0.42932 0.570771 0.207483 0.0
C_ C_ 0.381853 0.588822 0.210019 0.0
C_ C_ 0.372918 0.617352 0.190542 0.0
C_ C_ 0.414437 0.63051 0.171853 0.0
C_ C_ 0.4608 0.613273 0.169669 0.0
C_ C_ 0.466734 0.581574 0.185219 0.0
C_ C_ 0.481436 0.620719 0.141473 0.0
C_ C_ 0.408884 0.648598 0.145016 0.0
C_ C_ 0.497609 0.730298 0.0920919 0.0
C_ C_ 0.472407 0.705623 0.111814 0.0
C_ C_ 0.471479 0.669032 0.105206 0.0
C_ C_ 0.49651 0.658066 0.0790275 0.0
C_ C_ 0.51981 0.683656 0.0593936 0.0
C_ C_ 0.634705 0.53623 0.167278 0.0
C_ C_ 0.665401 0.544726 0.139664 0.0
C_ C_ 0.384406 0.533773 0.136493 0.0
C_ C_ 0.413353 0.541779 0.110068 0.0
C_ C_ 0.387771 0.557109 0.0859562 0.0
C_ C_ 0.669945 0.568029 0.0889766 0.0
C_ C_ 0.642605 0.56379 0.116129 0.0
C_ C_ 0.413024 0.579403 0.0648629 0.0
C_ C_ 0.666112 0.596676 0.0696897 0.0
C_ C_ 0.430381 0.657225 0.489051 0.0
C_ C_ 0.416542 0.62753 0.00700845 0.0
C_ C_ 0.392127 0.632198 0.0347975 0.0
C_ C_ 0.380366 0.666644 0.0436273 0.0
C_ C_ 0.394123 0.695648 0.0247575 0.0
C_ C_ 0.56132 0.710002 0.477052 0.0
C_ C_ 0.57068 0.679229 0.457483 0.0
C_ C_ 0.618147 0.661178 0.460019 0.0
C_ C_ 0.627082 0.632648 0.440542 0.0
C_ C_ 0.585563 0.61949 0.421853 0.0
C_ C_ 0.5392 0.636727 0.419669 0.0
C_ C_ 0.533266 0.668426 0.435219 0.0
C_ C_ 0.518564 0.629281 0.391473 0.0
C_ C_ 0.591116 0.601402 0.395016 0.0
C_ C_ 0.502391 0.519702 0.342092 0.0
C_ C_ 0.527593 0.544377 0.361814 0.0
C_ C_ 0.528521 0.580968 0.355206 0.0
C_ C_ 0.50349 0.591934 0.329027 0.0
C_ C_ 0.48019 0.566344 0.309394 0.0
C_ C_ 0.365295 0.71377 0.417278 0.0
C_ C_ 0.334599 0.705274 0.389664 0.0
C_ C_ 0.615594 0.716227 0.386493 0.0
C_ C_ 0.586647 0.708221 0.360068 0.0
C_ C_ 0.612229 0.692891 0.335956 0.0
C_ C_ 0.330055 0.681971 0.338977 0.0
C_ C_ 0.357395 0.68621 0.366129 0.0
C_ C_ 0.586976 0.670597 0.314863 0.0
C_ C_ 0.333888 0.653324 0.31969 0.0
C_ C_ 0.569619 0.592775 0.239051 0.0
C_ C_ 0.583458 0.62247 0.257008 0.0
C_ C_ 0.607873 0.617802 0.284798 0.0
C_ C_ 0.619634 0.583356 0.293627 0.0
C_ C_ 0.605877 0.554352 0.274758 0.0
C_ C_ 0.56132 0.960002 0.272948 0.0
C_ C_ 0.57068 0.929229 0.292517 0.0
C_ C_ 0.618147 0.911178 0.289981 0.0
C_ C_ 0.627082 0.882648 0.309458 0.0
C_ C_ 0.585563 0.86949 0.328147 0.0
C_ C_ 0.5392 0.886727 0.330331 0.0
C_ C_ 0.533266 0.918426 0.314781 0.0
C_ C_ 0.518564 0.879281 0.358527 0.0
C_ C_ 0.591116 0.851402 0.354984 0.0
C_ C_ 0.502391 0.769702 0.407908 0.0
C_ C_ 0.527593 0.794377 0.388186 0.0
C_ C_ 0.528521 0.830968 0.394794 0.0
C_ C_ 0.50349 0.841934 0.420973 0.0
C_ C_ 0.48019 0.816344 0.440606 0.0
C_ C_ 0.365295 0.96377 0.332722 0.0
C_ C_ 0.334599 0.955274 0.360336 0.0
C_ C_ 0.615594 0.966227 0.363507 0.0
C_ C_ 0.586647 0.958221 0.389932 0.0
C_ C_ 0.612229 0.942891 0.414044 0.0
C_ C_ 0.330055 0.931971 0.411023 0.0
C_ C_ 0.357395 0.93621 0.383871 0.0
C_ C_ 0.586976 0.920597 0.435137 0.0
C_ C_ 0.333888 0.903324 0.43031 0.0
C_ C_ 0.569619 0.842775 0.010949 0.0
C_ C_ 0.583458 0.87247 0.492992 0.0
C_ C_ 0.607873 0.867802 0.465202 0.0
C_ C_ 0.619634 0.833356 0.456373 0.0
C_ C_ 0.605877 0.804352 0.475242 0.0
C_ C_ 0.43868 0.789998 0.0229477 0.0
C_ C_ 0.42932 0.820771 0.0425173 0.0
C_ C_ 0.381853 0.838822 0.0399812 0.0
C_ C_ 0.372918 0.867352 0.0594584 0.0
C_ C_ 0.414437 0.88051 0.0781469 0.0
C_ C_ 0.4608 0.863273 0.0803307 0.0
C_ C_ 0.466734 0.831574 0.0647812 0.0
C_ C_ 0.481436 0.870719 0.108527 0.0
C_ C_ 0.408884 0.898598 0.104984 0.0
C_ C_ 0.497609 0.980298 0.157908 0.0
C_ C_ 0.472407 0.955623 0.138186 0.0
C_ C_ 0.471479 0.919032 0.144794 0.0
C_ C_ 0.49651 0.908066 0.170973 0.0
C_ C_ 0.51981 0.933656 0.190606 0.0
C_ C_ 0.634705 0.78623 0.0827219 0.0
C_ C_ 0.665401 0.794726 0.110336 0.0
C_ C_ 0.384406 0.783773 0.113507 0.0
C_ C_ 0.413353 0.791779 0.139932 0.0
C_ C_ 0.387771 0.807109 0.164044 0.0
C_ C_ 0.669945 0.818029 0.161023 0.0
C_ C_ 0.642605 0.81379 0.133871 0.0
C_ C_ 0.413024 0.829403 0.185137 0.0
C_ C_ 0.666112 0.846676 0.18031 0.0
C_ C_ 0.430381 0.907225 0.260949 0.0
C_ C_ 0.416542 0.87753 0.242992 0.0
C_ C_ 0.392127 0.882198 0.215202 0.0
C_ C_ 0.380366 0.916644 0.206373 0.0
C_ C_ 0.394123 0.945648 0.225242 0.0
N_ N_ 0.519601 0.719087 0.066102 0.0
N_ N_ 0.450277 0.642872 0.126543 0.0
N_ N_ 0.378193 0.601806 0.0536496 0.0
N_ N_ 0.420902 0.690701 0.9986 0.0
N_ N_ 0.480399 0.530913 0.316102 0.0
N_ N_ 0.549723 0.607128 0.376543 0.0
N_ N_ 0.621807 0.648194 0.30365 0.0
N_ N_ 0.579098 0.559299 0.2486 0.0
N_ N_ 0.480399 0.780913 0.433898 0.0
N_ N_ 0.549723 0.857128 0.373457 0.0
N_ N_ 0.621807 0.898194 0.44635 0.0
N_ N_ 0.579098 0.809299 0.5014 0.0
N_ N_ 0.519601 0.969087 0.183898 0.0
N_ N_ 0.450277 0.892872 0.123457 0.0
N_ N_ 0.378193 0.851806 0.19635 0.0
N_ N_ 0.420902 0.940701 0.2514 0.0
O_ O_ 0.465517 0.514997 0.217173 0.0
O_ O_ 0.410651 0.534476 0.250578 0.0
O_ O_ 0.362123 0.655721 0.134274 0.0
O_ O_ 0.532653 0.620132 0.13586 0.0
O_ O_ 0.59232 0.551058 0.172831 0.0
O_ O_ 0.645557 0.510599 0.184197 0.0
O_ O_ 0.620206 0.605994 0.059287 0.0
O_ O_ 0.454156 0.569983 0.0492879 0.0
O_ O_ 0.534483 0.735003 0.467173 0.0
O_ O_ 0.589349 0.715524 0.000578323 0.0
O_ O_ 0.637877 0.594279 0.384274 0.0
O_ O_ 0.467347 0.629868 0.38586 0.0
O_ O_ 0.40768 0.698942 0.422831 0.0
O_ O_ 0.354443 0.739401 0.434197 0.0
O_ O_ 0.379794 0.644007 0.309287 0.0
O_ O_ 0.545844 0.680017 0.299288 0.0
O_ O_ 0.534483 0.985003 0.282827 0.0
O_ O_ 0.589349 0.965524 0.249422 0.0
O_ O_ 0.637877 0.844279 0.365726 0.0
O_ O_ 0.467347 0.879868 0.36414 0.0
O_ O_ 0.40768 0.948942 0.327169 0.0
O_ O_ 0.354443 0.989401 0.315803 0.0
O_ O_ 0.379794 0.894007 0.440713 0.0
O_ O_ 0.545844 0.930017 0.450712 0.0
O_ O_ 0.465517 0.764997 0.032827 0.0
O_ O_ 0.410651 0.784476 0.499422 0.0
O_ O_ 0.362123 0.905721 0.115726 0.0
O_ O_ 0.532653 0.870132 0.11414 0.0
O_ O_ 0.59232 0.801058 0.0771694 0.0
O_ O_ 0.645557 0.760599 0.0658027 0.0
O_ O_ 0.620206 0.855994 0.190713 0.0
O_ O_ 0.454156 0.819983 0.200712 0.0
Cd Cd 0.563502 0.511719 0.71467 0.0
Cd Cd 0.436498 0.738281 0.96467 0.0
Cd Cd 0.436498 0.988281 0.78533 0.0
Cd Cd 0.563502 0.761719 0.53533 0.0
H_ H_ 0.351294 0.579745 0.725897 0.0
H_ H_ 0.668104 0.629013 0.690298 0.0
H_ H_ 0.498892 0.565178 0.679747 0.0
H_ H_ 0.500395 0.758413 0.597662 0.0
H_ H_ 0.455477 0.714791 0.632561 0.0
H_ H_ 0.499181 0.629969 0.574356 0.0
H_ H_ 0.53885 0.675225 0.5391 0.0
H_ H_ 0.402979 0.52026 0.654784 0.0
H_ H_ 0.455113 0.536785 0.608694 0.0
H_ H_ 0.604364 0.574876 0.618937 0.0
H_ H_ 0.445366 0.653364 0.96672 0.0
H_ H_ 0.423131 0.600974 0.498905 0.0
H_ H_ 0.360554 0.670902 0.564808 0.0
H_ H_ 0.381605 0.721767 0.530389 0.0
H_ H_ 0.648706 0.670255 0.975897 0.0
H_ H_ 0.331896 0.620987 0.940298 0.0
H_ H_ 0.501108 0.684822 0.929747 0.0
H_ H_ 0.499605 0.991587 0.847662 0.0
H_ H_ 0.544523 0.535209 0.882561 0.0
H_ H_ 0.500819 0.620031 0.824356 0.0
H_ H_ 0.46115 0.574775 0.7891 0.0
H_ H_ 0.597021 0.72974 0.904784 0.0
H_ H_ 0.544887 0.713215 0.858694 0.0
H_ H_ 0.395636 0.675124 0.868937 0.0
H_ H_ 0.554634 0.596636 0.71672 0.0
H_ H_ 0.576869 0.649026 0.748905 0.0
H_ H_ 0.639446 0.579098 0.814808 0.0
H_ H_ 0.618395 0.528233 0.780389 0.0
H_ H_ 0.648706 0.920255 0.774103 0.0
H_ H_ 0.331896 0.870987 0.809702 0.0
H_ H_ 0.501108 0.934822 0.820253 0.0
H_ H_ 0.499605 0.741587 0.902338 0.0
H_ H_ 0.544523 0.785209 0.867439 0.0
H_ H_ 0.500819 0.870031 0.925644 0.0
H_ H_ 0.46115 0.824775 0.9609 0.0
H_ H_ 0.597021 0.97974 0.845216 0.0
H_ H_ 0.544887 0.963215 0.891306 0.0
H_ H_ 0.395636 0.925124 0.881063 0.0
H_ H_ 0.554634 0.846636 0.53328 0.0
H_ H_ 0.576869 0.899026 0.00109454 0.0
H_ H_ 0.639446 0.829098 0.935192 0.0
H_ H_ 0.618395 0.778233 0.969611 0.0
H_ H_ 0.351294 0.829745 0.524103 0.0
H_ H_ 0.668104 0.879013 0.559702 0.0
H_ H_ 0.498892 0.815178 0.570253 0.0
H_ H_ 0.500395 0.508413 0.652338 0.0
H_ H_ 0.455477 0.964791 0.617439 0.0
H_ H_ 0.499181 0.879969 0.675644 0.0
H_ H_ 0.53885 0.925225 0.7109 0.0
H_ H_ 0.402979 0.77026 0.595216 0.0
H_ H_ 0.455113 0.786785 0.641306 0.0
H_ H_ 0.604364 0.824876 0.631063 0.0
H_ H_ 0.445366 0.903364 0.78328 0.0
H_ H_ 0.423131 0.850974 0.751095 0.0
H_ H_ 0.360554 0.920902 0.685192 0.0
H_ H_ 0.381605 0.971767 0.719611 0.0
C_ C_ 0.43868 0.539998 0.727052 0.0
C_ C_ 0.42932 0.570771 0.707483 0.0
C_ C_ 0.381853 0.588822 0.710019 0.0
C_ C_ 0.372918 0.617352 0.690542 0.0
C_ C_ 0.414437 0.63051 0.671853 0.0
C_ C_ 0.4608 0.613273 0.669669 0.0
C_ C_ 0.466734 0.581574 0.685219 0.0
C_ C_ 0.481436 0.620719 0.641473 0.0
C_ C_ 0.408884 0.648598 0.645016 0.0
C_ C_ 0.497609 0.730298 0.592092 0.0
C_ C_ 0.472407 0.705623 0.611814 0.0
C_ C_ 0.471479 0.669032 0.605206 0.0
C_ C_ 0.49651 0.658066 0.579027 0.0
C_ C_ 0.51981 0.683656 0.559394 0.0
C_ C_ 0.634705 0.53623 0.667278 0.0
C_ C_ 0.665401 0.544726 0.639664 0.0
C_ C_ 0.384406 0.533773 0.636493 0.0
C_ C_ 0.413353 0.541779 0.610068 0.0
C_ C_ 0.387771 0.557109 0.585956 0.0
C_ C_ 0.669945 0.568029 0.588977 0.0
C_ C_ 0.642605 0.56379 0.616129 0.0
C_ C_ 0.413024 0.579403 0.564863 0.0
C_ C_ 0.666112 0.596676 0.56969 0.0
C_ C_ 0.430381 0.657225 0.989051 0.0
C_ C_ 0.416542 0.62753 0.507008 0.0
C_ C_ 0.392127 0.632198 0.534798 0.0
C_ C_ 0.380366 0.666644 0.543627 0.0
C_ C_ 0.394123 0.695648 0.524758 0.0
C_ C_ 0.56132 0.710002 0.977052 0.0
C_ C_ 0.57068 0.679229 0.957483 0.0
C_ C_ 0.618147 0.661178 0.960019 0.0
C_ C_ 0.627082 0.632648 0.940542 0.0
C_ C_ 0.585563 0.61949 0.921853 0.0
C_ C_ 0.5392 0.636727 0.919669 0.0
C_ C_ 0.533266 0.668426 0.935219 0.0
C_ C_ 0.518564 0.629281 0.891473 0.0
C_ C_ 0.591116 0.601402 0.895016 0.0
C_ C_ 0.502391 0.519702 0.842092 0.0
C_ C_ 0.527593 0.544377 0.861814 0.0
C_ C_ 0.528521 0.580968 0.855206 0.0
C_ C_ 0.50349 0.591934 0.829027 0.0
C_ C_ 0.48019 0.566344 0.809394 0.0
C_ C_ 0.365295 0.71377 0.917278 0.0
C_ C_ 0.334599 0.705274 0.889664 0.0
C_ C_ 0.615594 0.716227 0.886493 0.0
C_ C_ 0.586647 0.708221 0.860068 0.0
C_ C_ 0.612229 0.692891 0.835956 0.0
C_ C_ 0.330055 0.681971 0.838977 0.0
C_ C_ 0.357395 0.68621 0.866129 0.0
C_ C_ 0.586976 0.670597 0.814863 0.0
C_ C_ 0.333888 0.653324 0.81969 0.0
C_ C_ 0.569619 0.592775 0.739051 0.0
C_ C_ 0.583458 0.62247 0.757008 0.0
C_ C_ 0.607873 0.617802 0.784798 0.0
C_ C_ 0.619634 0.583356 0.793627 0.0
C_ C_ 0.605877 0.554352 0.774758 0.0
C_ C_ 0.56132 0.960002 0.772948 0.0
C_ C_ 0.57068 0.929229 0.792517 0.0
C_ C_ 0.618147 0.911178 0.789981 0.0
C_ C_ 0.627082 0.882648 0.809458 0.0
C_ C_ 0.585563 0.86949 0.828147 0.0
C_ C_ 0.5392 0.886727 0.830331 0.0
C_ C_ 0.533266 0.918426 0.814781 0.0
C_ C_ 0.518564 0.879281 0.858527 0.0
C_ C_ 0.591116 0.851402 0.854984 0.0
C_ C_ 0.502391 0.769702 0.907908 0.0
C_ C_ 0.527593 0.794377 0.888186 0.0
C_ C_ 0.528521 0.830968 0.894794 0.0
C_ C_ 0.50349 0.841934 0.920973 0.0
C_ C_ 0.48019 0.816344 0.940606 0.0
C_ C_ 0.365295 0.96377 0.832722 0.0
C_ C_ 0.334599 0.955274 0.860336 0.0
C_ C_ 0.615594 0.966227 0.863507 0.0
C_ C_ 0.586647 0.958221 0.889932 0.0
C_ C_ 0.612229 0.942891 0.914044 0.0
C_ C_ 0.330055 0.931971 0.911023 0.0
C_ C_ 0.357395 0.93621 0.883871 0.0
C_ C_ 0.586976 0.920597 0.935137 0.0
C_ C_ 0.333888 0.903324 0.93031 0.0
C_ C_ 0.569619 0.842775 0.510949 0.0
C_ C_ 0.583458 0.87247 0.992992 0.0
C_ C_ 0.607873 0.867802 0.965202 0.0
C_ C_ 0.619634 0.833356 0.956373 0.0
C_ C_ 0.605877 0.804352 0.975242 0.0
C_ C_ 0.43868 0.789998 0.522948 0.0
C_ C_ 0.42932 0.820771 0.542517 0.0
C_ C_ 0.381853 0.838822 0.539981 0.0
C_ C_ 0.372918 0.867352 0.559458 0.0
C_ C_ 0.414437 0.88051 0.578147 0.0
C_ C_ 0.4608 0.863273 0.580331 0.0
C_ C_ 0.466734 0.831574 0.564781 0.0
C_ C_ 0.481436 0.870719 0.608527 0.0
C_ C_ 0.408884 0.898598 0.604984 0.0
C_ C_ 0.497609 0.980298 0.657908 0.0
C_ C_ 0.472407 0.955623 0.638186 0.0
C_ C_ 0.471479 0.919032 0.644794 0.0
C_ C_ 0.49651 0.908066 0.670973 0.0
C_ C_ 0.51981 0.933656 0.690606 0.0
C_ C_ 0.634705 0.78623 0.582722 0.0
C_ C_ 0.665401 0.794726 0.610336 0.0
C_ C_ 0.384406 0.783773 0.613507 0.0
C_ C_ 0.413353 0.791779 0.639932 0.0
C_ C_ 0.387771 0.807109 0.664044 0.0
C_ C_ 0.669945 0.818029 0.661023 0.0
C_ C_ 0.642605 0.81379 0.633871 0.0
C_ C_ 0.413024 0.829403 0.685137 0.0
C_ C_ 0.666112 0.846676 0.68031 0.0
C_ C_ 0.430381 0.907225 0.760949 0.0
C_ C_ 0.416542 0.87753 0.742992 0.0
C_ C_ 0.392127 0.882198 0.715202 0.0
C_ C_ 0.380366 0.916644 0.706373 0.0
C_ C_ 0.394123 0.945648 0.725242 0.0
N_ N_ 0.519601 0.719087 0.566102 0.0
N_ N_ 0.450277 0.642872 0.626543 0.0
N_ N_ 0.378193 0.601806 0.55365 0.0
N_ N_ 0.420902 0.690701 0.4986 0.0
N_ N_ 0.480399 0.530913 0.816102 0.0
N_ N_ 0.549723 0.607128 0.876543 0.0
N_ N_ 0.621807 0.648194 0.80365 0.0
N_ N_ 0.579098 0.559299 0.7486 0.0
N_ N_ 0.480399 0.780913 0.933898 0.0
N_ N_ 0.549723 0.857128 0.873457 0.0
N_ N_ 0.621807 0.898194 0.94635 0.0
N_ N_ 0.579098 0.809299 0.00139979 0.0
N_ N_ 0.519601 0.969087 0.683898 0.0
N_ N_ 0.450277 0.892872 0.623457 0.0
N_ N_ 0.378193 0.851806 0.69635 0.0
N_ N_ 0.420902 0.940701 0.7514 0.0
O_ O_ 0.465517 0.514997 0.717173 0.0
O_ O_ 0.410651 0.534476 0.750578 0.0
O_ O_ 0.362123 0.655721 0.634274 0.0
O_ O_ 0.532653 0.620132 0.63586 0.0
O_ O_ 0.59232 0.551058 0.672831 0.0
O_ O_ 0.645557 0.510599 0.684197 0.0
O_ O_ 0.620206 0.605994 0.559287 0.0
O_ O_ 0.454156 0.569983 0.549288 0.0
O_ O_ 0.534483 0.735003 0.967173 0.0
O_ O_ 0.589349 0.715524 0.500578 0.0
O_ O_ 0.637877 0.594279 0.884274 0.0
O_ O_ 0.467347 0.629868 0.88586 0.0
O_ O_ 0.40768 0.698942 0.922831 0.0
O_ O_ 0.354443 0.739401 0.934197 0.0
O_ O_ 0.379794 0.644007 0.809287 0.0
O_ O_ 0.545844 0.680017 0.799288 0.0
O_ O_ 0.534483 0.985003 0.782827 0.0
O_ O_ 0.589349 0.965524 0.749422 0.0
O_ O_ 0.637877 0.844279 0.865726 0.0
O_ O_ 0.467347 0.879868 0.86414 0.0
O_ O_ 0.40768 0.948942 0.827169 0.0
O_ O_ 0.354443 0.989401 0.815803 0.0
O_ O_ 0.379794 0.894007 0.940713 0.0
O_ O_ 0.545844 0.930017 0.950712 0.0
O_ O_ 0.465517 0.764997 0.532827 0.0
O_ O_ 0.410651 0.784476 0.999422 0.0
O_ O_ 0.362123 0.905721 0.615726 0.0
O_ O_ 0.532653 0.870132 0.61414 0.0
O_ O_ 0.59232 0.801058 0.577169 0.0
O_ O_ 0.645557 0.760599 0.565803 0.0
O_ O_ 0.620206 0.855994 0.690713 0.0
O_ O_ 0.454156 0.819983 0.700712 0.0
Cd Cd 0.896835 0.0117191 0.21467 0.0
Cd Cd 0.769832 0.238281 0.46467 0.0
Cd Cd 0.769832 0.488281 0.28533 0.0
Cd Cd 0.896835 0.261719 0.0353296 0.0
H_ H_ 0.684627 0.0797452 0.225897 0.0
H_ H_ 0.00143726 0.129013 0.190298 0.0
H_ H_ 0.832225 0.0651784 0.179747 0.0
H_ H_ 0.833728 0.258413 0.0976618 0.0
H_ H_ 0.78881 0.214791 0.132561 0.0
H_ H_ 0.832514 0.129969 0.0743557 0.0
H_ H_ 0.872183 0.175225 0.0391002 0.0
H_ H_ 0.736312 0.0202596 0.154784 0.0
H_ H_ 0.788447 0.0367846 0.108694 0.0
H_ H_ 0.937697 0.0748764 0.118937 0.0
H_ H_ 0.778699 0.153364 0.46672 0.0
H_ H_ 0.756465 0.100974 0.998905 0.0
H_ H_ 0.693888 0.170902 0.0648075 0.0
H_ H_ 0.714938 0.221767 0.0303887 0.0
H_ H_ 0.98204 0.170255 0.475897 0.0
H_ H_ 0.665229 0.120987 0.440298 0.0
H_ H_ 0.834442 0.184822 0.429747 0.0
H_ H_ 0.832939 0.491587 0.347662 0.0
H_ H_ 0.877857 0.035209 0.382561 0.0
H_ H_ 0.834153 0.120031 0.324356 0.0
H_ H_ 0.794483 0.0747749 0.2891 0.0
H_ H_ 0.930355 0.22974 0.404784 0.0
H_ H_ 0.87822 0.213215 0.358694 0.0
H_ H_ 0.728969 0.175124 0.368937 0.0
H_ H_ 0.887968 0.0966362 0.21672 0.0
H_ H_ 0.910202 0.149026 0.248905 0.0
H_ H_ 0.972779 0.0790981 0.314808 0.0
H_ H_ 0.951728 0.0282328 0.280389 0.0
H_ H_ 0.98204 0.420255 0.274103 0.0
H_ H_ 0.665229 0.370987 0.309702 0.0
H_ H_ 0.834442 0.434822 0.320253 0.0
H_ H_ 0.832939 0.241587 0.402338 0.0
H_ H_ 0.877857 0.285209 0.367439 0.0
H_ H_ 0.834153 0.370031 0.425644 0.0
H_ H_ 0.794483 0.324775 0.4609 0.0
H_ H_ 0.930355 0.47974 0.345216 0.0
H_ H_ 0.87822 0.463215 0.391306 0.0
H_ H_ 0.728969 0.425124 0.381063 0.0
H_ H_ 0.887968 0.346636 0.0332805 0.0
H_ H_ 0.910202 0.399026 0.501095 0.0
H_ H_ 0.972779 0.329098 0.435192 0.0
H_ H_ 0.951728 0.278233 0.469611 0.0
H_ H_ 0.684627 0.329745 0.0241033 0.0
H_ H_ 0.00143727 0.379013 0.0597022 0.0
H_ H_ 0.832225 0.315178 0.0702528 0.0
H_ H_ 0.833728 0.00841344 0.152338 0.0
H_ H_ 0.78881 0.464791 0.117439 0.0
H_ H_ 0.832514 0.379969 0.175644 0.0
H_ H_ 0.872183 0.425225 0.2109 0.0
H_ H_ 0.736312 0.27026 0.0952161 0.0
H_ H_ 0.788447 0.286785 0.141306 0.0
H_ H_ 0.937697 0.324876 0.131063 0.0
H_ H_ 0.778699 0.403364 0.28328 0.0
H_ H_ 0.756465 0.350974 0.251095 0.0
H_ H_ 0.693888 0.420902 0.185192 0.0
H_ H_ 0.714938 0.471767 0.219611 0.0
C_ C_ 0.772014 0.0399984 0.227052 0.0
C_ C_ 0.762653 0.0707715 0.207483 0.0
C_ C_ 0.715187 0.0888219 0.210019 0.0
C_ C_ 0.706251 0.117352 0.190542 0.0
C_ C_ 0.747771 0.13051 0.171853 0.0
C_ C_ 0.794133 0.113273 0.169669 0.0
C_ C_ 0.800068 0.0815736 0.185219 0.0
C_ C_ 0.814769 0.120719 0.141473 0.0
C_ C_ 0.742217 0.148598 0.145016 0.0
C_ C_ 0.830943 0.230298 0.0920919 0.0
C_ C_ 0.80574 0.205623 0.111814 0.0
C_ C_ 0.804812 0.169032 0.105206 0.0
C_ C_ 0.829843 0.158066 0.0790275 0.0
C_ C_ 0.853144 0.183656 0.0593936 0.0
C_ C_ 0.968039 0.0362297 0.167278 0.0
C_ C_ 0.998734 0.0447258 0.139664 0.0
C_ C_ 0.717739 0.0337728 0.136493 0.0
C_ C_ 0.746686 0.0417792 0.110068 0.0
C_ C_ 0.721104 0.0571085 0.0859562 0.0
C_ C_ 0.00327862 0.0680289 0.0889766 0.0
C_ C_ 0.975938 0.0637899 0.116129 0.0
C_ C_ 0.746357 0.0794027 0.0648629 0.0
C_ C_ 0.999445 0.0966762 0.0696897 0.0
C_ C_ 0.763715 0.157225 0.489051 0.0
C_ C_ 0.749875 0.12753 0.00700845 0.0
C_ C_ 0.725461 0.132198 0.0347975 0.0
C_ C_ 0.713699 0.166644 0.0436273 0.0
C_ C_ 0.727456 0.195648 0.0247575 0.0
C_ C_ 0.894653 0.210002 0.477052 0.0
C_ C_ 0.904014 0.179229 0.457483 0.0
C_ C_ 0.95148 0.161178 0.460019 0.0
C_ C_ 0.960415 0.132648 0.440542 0.0
C_ C_ 0.918896 0.11949 0.421853 0.0
C_ C_ 0.872534 0.136727 0.419669 0.0
C_ C_ 0.866599 0.168426 0.435219 0.0
C_ C_ 0.851898 0.129281 0.391473 0.0
C_ C_ 0.924449 0.101402 0.395016 0.0
C_ C_ 0.835724 0.0197024 0.342092 0.0
C_ C_ 0.860926 0.044377 0.361814 0.0
C_ C_ 0.861855 0.0809681 0.355206 0.0
C_ C_ 0.836823 0.0919345 0.329027 0.0
C_ C_ 0.813523 0.0663441 0.309394 0.0
C_ C_ 0.698628 0.21377 0.417278 0.0
C_ C_ 0.667933 0.205274 0.389664 0.0
C_ C_ 0.948927 0.216227 0.386493 0.0
C_ C_ 0.91998 0.208221 0.360068 0.0
C_ C_ 0.945562 0.192891 0.335956 0.0
C_ C_ 0.663388 0.181971 0.338977 0.0
C_ C_ 0.690729 0.18621 0.366129 0.0
C_ C_ 0.92031 0.170597 0.314863 0.0
C_ C_ 0.667221 0.153324 0.31969 0.0
C_ C_ 0.902952 0.0927748 0.239051 0.0
C_ C_ 0.916792 0.12247 0.257008 0.0
C_ C_ 0.941206 0.117802 0.284798 0.0
C_ C_ 0.952968 0.0833558 0.293627 0.0
C_ C_ 0.93921 0.0543523 0.274758 0.0
C_ C_ 0.894653 0.460002 0.272948 0.0
C_ C_ 0.904014 0.429229 0.292517 0.0
C_ C_ 0.95148 0.411178 0.289981 0.0
C_ C_ 0.960415 0.382648 0.309458 0.0
C_ C_ 0.918896 0.36949 0.328147 0.0
C_ C_ 0.872534 0.386727 0.330331 0.0
C_ C_ 0.866599 0.418426 0.314781 0.0
C_ C_ 0.851898 0.379281 0.358527 0.0
C_ C_ 0.924449 0.351402 0.354984 0.0
C_ C_ 0.835724 0.269702 0.407908 0.0
C_ C_ 0.860926 0.294377 0.388186 0.0
C_ C_ 0.861855 0.330968 0.394794 0.0
C_ C_ 0.836823 0.341934 0.420973 0.0
C_ C_ 0.813523 0.316344 0.440606 0.0
C_ C_ 0.698628 0.46377 0.332722 0.0
C_ C_ 0.667933 0.455274 0.360336 0.0
C_ C_ 0.948927 0.466227 0.363507 0.0
C_ C_ 0.91998 0.458221 0.389932 0.0
C_ C_ 0.945562 0.442891 0.414044 0.0
C_ C_ 0.663388 0.431971 0.411023 0.0
C_ C_ 0.690729 0.43621 0.383871 0.0
C_ C_ 0.92031 0.420597 0.435137 0.0
C_ C_ 0.667221 0.403324 0.43031 0.0
C_ C_ 0.902952 0.342775 0.010949 0.0
C_ C_ 0.916792 0.37247 0.492992 0.0
C_ C_ 0.941206 0.367802 0.465202 0.0
C_ C_ 0.952968 0.333356 0.456373 0.0
C_ C_ 0.93921 0.304352 0.475242 0.0
C_ C_ 0.772014 0.289998 0.0229477 0.0
C_ C_ 0.762653 0.320771 0.0425173 0.0
C_ C_ 0.715187 0.338822 0.0399812 0.0
C_ C_ 0.706251 0.367352 0.0594584 0.0
C_ C_ 0.747771 0.38051 0.0781469 0.0
C_ C_ 0.794133 0.363273 0.0803307 0.0
C_ C_ 0.800068 0.331574 0.0647813 0.0
C_ C_ 0.814769 0.370719 0.108527 0.0
C_ C_ 0.742217 0.398598 0.104984 0.0
C_ C_ 0.830943 0.480298 0.157908 0.0
C_ C_ 0.80574 0.455623 0.138186 0.0
C_ C_ 0.804812 0.419032 0.144794 0.0
C_ C_ 0.829843 0.408066 0.170973 0.0
C_ C_ 0.853144 0.433656 0.190606 0.0
C_ C_ 0.968039 0.28623 0.0827219 0.0
C_ C_ 0.998734 0.294726 0.110336 0.0
C_ C_ 0.717739 0.283773 0.113507 0.0
C_ C_ 0.746686 0.291779 0.139932 0.0
C_ C_ 0.721104 0.307109 0.164044 0.0
C_ C_ 0.00327863 0.318029 0.161023 0.0
C_ C_ 0.975938 0.31379 0.133871 0.0
C_ C_ 0.746357 0.329403 0.185137 0.0
C_ C_ 0.999445 0.346676 0.18031 0.0
C_ C_ 0.763715 0.407225 0.260949 0.0
C_ C_ 0.749875 0.37753 0.242992 0.0
C_ C_ 0.725461 0.382198 0.215202 0.0
C_ C_ 0.713699 0.416644 0.206373 0.0
C_ C_ 0.727456 0.445648 0.225242 0.0
N_ N_ 0.852935 0.219087 0.066102 0.0
N_ N_ 0.783611 0.142872 0.126543 0.0
N_ N_ 0.711527 0.101806 0.0536496 0.0
N_ N_ 0.754235 0.190701 0.9986 0.0
N_ N_ 0.813732 0.030913 0.316102 0.0
N_ N_ 0.883056 0.107128 0.376543 0.0
N_ N_ 0.95514 0.148194 0.30365 0.0
N_ N_ 0.912431 0.0592986 0.2486 0.0
N_ N_ 0.813732 0.280913 0.433898 0.0
N_ N_ 0.883056 0.357128 0.373457 0.0
N_ N_ 0.95514 0.398194 0.44635 0.0
N_ N_ 0.912431 0.309299 0.5014 0.0
N_ N_ 0.852935 0.469087 0.183898 0.0
N_ N_ 0.783611 0.392872 0.123457 0.0
N_ N_ 0.711527 0.351806 0.19635 0.0
N_ N_ 0.754235 0.440701 0.2514 0.0
O_ O_ 0.79885 0.0149975 0.217173 0.0
O_ O_ 0.743984 0.0344756 0.250578 0.0
O_ O_ 0.695457 0.155721 0.134274 0.0
O_ O_ 0.865986 0.120132 0.13586 0.0
O_ O_ 0.925653 0.0510577 0.172831 0.0
O_ O_ 0.978891 0.0105991 0.184197 0.0
O_ O_ 0.95354 0.105994 0.059287 0.0
O_ O_ 0.78749 0.0699826 0.0492879 0.0
O_ O_ 0.867816 0.235003 0.467173 0.0
O_ O_ 0.922682 0.215524 0.000578323 0.0
O_ O_ 0.97121 0.094279 0.384274 0.0
O_ O_ 0.80068 0.129868 0.38586 0.0
O_ O_ 0.741013 0.198942 0.422831 0.0
O_ O_ 0.687776 0.239401 0.434197 0.0
O_ O_ 0.713127 0.144006 0.309287 0.0
O_ O_ 0.879177 0.180017 0.299288 0.0
O_ O_ 0.867816 0.485003 0.282827 0.0
O_ O_ 0.922682 0.465524 0.249422 0.0
O_ O_ 0.97121 0.344279 0.365726 0.0
O_ O_ 0.80068 0.379868 0.36414 0.0
O_ O_ 0.741013 0.448942 0.327169 0.0
O_ O_ 0.687776 0.489401 0.315803 0.0
O_ O_ 0.713127 0.394006 0.440713 0.0
O_ O_ 0.879177 0.430017 0.450712 0.0
O_ O_ 0.79885 0.264997 0.032827 0.0
O_ O_ 0.743984 0.284476 0.499422 0.0
O_ O_ 0.695457 0.405721 0.115726 0.0
O_ O_ 0.865986 0.370132 0.11414 0.0
O_ O_ 0.925653 0.301058 0.0771694 0.0
O_ O_ 0.978891 0.260599 0.0658027 0.0
O_ O_ 0.95354 0.355994 0.190713 0.0
O_ O_ 0.78749 0.319983 0.200712 0.0
Cd Cd 0.896835 0.0117191 0.71467 0.0
Cd Cd 0.769832 0.238281 0.96467 0.0
Cd Cd 0.769832 0.488281 0.78533 0.0
Cd Cd 0.896835 0.261719 0.53533 0.0
H_ H_ 0.684627 0.0797452 0.725897 0.0
H_ H_ 0.00143726 0.129013 0.690298 0.0
H_ H_ 0.832225 0.0651784 0.679747 0.0
H_ H_ 0.833728 0.258413 0.597662 0.0
H_ H_ 0.78881 0.214791 0.632561 0.0
H_ H_ 0.832514 0.129969 0.574356 0.0
H_ H_ 0.872183 0.175225 0.5391 0.0
H_ H_ 0.736312 0.0202596 0.654784 0.0
H_ H_ 0.788447 0.0367846 0.608694 0.0
H_ H_ 0.937697 0.0748764 0.618937 0.0
H_ H_ 0.778699 0.153364 0.96672 0.0
H_ H_ 0.756465 0.100974 0.498905 0.0
H_ H_ 0.693888 0.170902 0.564808 0.0
H_ H_ 0.714938 0.221767 0.530389 0.0
H_ H_ 0.98204 0.170255 0.975897 0.0
H_ H_ 0.665229 0.120987 0.940298 0.0
H_ H_ 0.834442 0.184822 0.929747 0.0
H_ H_ 0.832939 0.491587 0.847662 0.0
H_ H_ 0.877857 0.035209 0.882561 0.0
H_ H_ 0.834153 0.120031 0.824356 0.0
H_ H_ 0.794483 0.0747749 0.7891 0.0
H_ H_ 0.930355 0.22974 0.904784 0.0
H_ H_ 0.87822 0.213215 0.858694 0.0
H_ H_ 0.728969 0.175124 0.868937 0.0
H_ H_ 0.887968 0.0966362 0.71672 0.0
H_ H_ 0.910202 0.149026 0.748905 0.0
H_ H_ 0.972779 0.0790981 0.814808 0.0
H_ H_ 0.951728 0.0282328 0.780389 0.0
H_ H_ 0.98204 0.420255 0.774103 0.0
H_ H_ 0.665229 0.370987 0.809702 0.0
H_ H_ 0.834442 0.434822 0.820253 0.0
H_ H_ 0.832939 0.241587 0.902338 0.0
H_ H_ 0.877857 0.285209 0.867439 0.0
H_ H_ 0.834153 0.370031 0.925644 0.0
H_ H_ 0.794483 0.324775 0.9609 0.0
H_ H_ 0.930355 0.47974 0.845216 0.0
H_ H_ 0.87822 0.463215 0.891306 0.0
H_ H_ 0.728969 0.425124 0.881063 0.0
H_ H_ 0.887968 0.346636 0.53328 0.0
H_ H_ 0.910202 0.399026 0.00109454 0.0
H_ H_ 0.972779 0.329098 0.935192 0.0
H_ H_ 0.951728 0.278233 0.969611 0.0
H_ H_ 0.684627 0.329745 0.524103 0.0
H_ H_ 0.00143727 0.379013 0.559702 0.0
H_ H_ 0.832225 0.315178 0.570253 0.0
H_ H_ 0.833728 0.00841344 0.652338 0.0
H_ H_ 0.78881 0.464791 0.617439 0.0
H_ H_ 0.832514 0.379969 0.675644 0.0
H_ H_ 0.872183 0.425225 0.7109 0.0
H_ H_ 0.736312 0.27026 0.595216 0.0
H_ H_ 0.788447 0.286785 0.641306 0.0
H_ H_ 0.937697 0.324876 0.631063 0.0
H_ H_ 0.778699 0.403364 0.78328 0.0
H_ H_ 0.756465 0.350974 0.751095 0.0
H_ H_ 0.693888 0.420902 0.685192 0.0
H_ H_ 0.714938 0.471767 0.719611 0.0
C_ C_ 0.772014 0.0399984 0.727052 0.0
C_ C_ 0.762653 0.0707715 0.707483 0.0
C_ C_ 0.715187 0.0888219 0.710019 0.0
C_ C_ 0.706251 0.117352 0.690542 0.0
C_ C_ 0.747771 0.13051 0.671853 0.0
C_ C_ 0.794133 0.113273 0.669669 0.0
C_ C_ 0.800068 0.0815736 0.685219 0.0
C_ C_ 0.814769 0.120719 0.641473 0.0
C_ C_ 0.742217 0.148598 0.645016 0.0
C_ C_ 0.830943 0.230298 0.592092 0.0
C_ C_ 0.80574 0.205623 0.611814 0.0
C_ C_ 0.804812 0.169032 0.605206 0.0
C_ C_ 0.829843 0.158066 0.579027 0.0
C_ C_ 0.853144 0.183656 0.559394 0.0
C_ C_ 0.968039 0.0362297 0.667278 0.0
C_ C_ 0.998734 0.0447258 0.639664 0.0
C_ C_ 0.717739 0.0337728 0.636493 0.0
C_ C_ 0.746686 0.0417792 0.610068 0.0
C_ C_ 0.721104 0.0571085 0.585956 0.0
C_ C_ 0.00327862 0.0680289 0.588977 0.0
C_ C_ 0.975938 0.0637899 0.616129 0.0
C_ C_ 0.746357 0.0794027 0.564863 0.0
C_ C_ 0.999445 0.0966762 0.56969 0.0
C_ C_ 0.763715 0.157225 0.989051 0.0
C_ C_ 0.749875 0.12753 0.507008 0.0
C_ C_ 0.725461 0.132198 0.534798 0.0
C_ C_ 0.713699 0.166644 0.543627 0.0
C_ C_ 0.727456 0.195648 0.524758 0.0
C_ C_ 0.894653 0.210002 0.977052 0.0
C_ C_ 0.904014 0.179229 0.957483 0.0
C_ C_ 0.95148 0.161178 0.960019 0.0
C_ C_ 0.960415 0.132648 0.940542 0.0
C_ C_ 0.918896 0.11949 0.921853 0.0
C_ C_ 0.872534 0.136727 0.919669 0.0
C_ C_ 0.866599 0.168426 0.935219 0.0
C_ C_ 0.851898 0.129281 0.891473 0.0
C_ C_ 0.924449 0.101402 0.895016 0.0
C_ C_ 0.835724 0.0197024 0.842092 0.0
C_ C_ 0.860926 0.044377 0.861814 0.0
C_ C_ 0.861855 0.0809681 0.855206 0.0
C_ C_ 0.836823 0.0919345 0.829027 0.0
C_ C_ 0.813523 0.0663441 0.809394 0.0
C_ C_ 0.698628 0.21377 0.917278 0.0
C_ C_ 0.667933 0.205274 0.889664 0.0
C_ C_ 0.948927 0.216227 0.886493 0.0
C_ C_ 0.91998 0.208221 0.860068 0.0
C_ C_ 0.945562 0.192891 0.835956 0.0
C_ C_ 0.663388 0.181971 0.838977 0.0
C_ C_ 0.690729 0.18621 0.866129 0.0
C_ C_ 0.92031 0.170597 0.814863 0.0
C_ C_ 0.667221 0.153324 0.81969 0.0
C_ C_ 0.902952 0.0927748 0.739051 0.0
C_ C_ 0.916792 0.12247 0.757008 0.0
C_ C_ 0.941206 0.117802 0.784798 0.0
C_ C_ 0.952968 0.0833558 0.793627 0.0
C_ C_ 0.93921 0.0543523 0.774758 0.0
C_ C_ 0.894653 0.460002 0.772948 0.0
C_ C_ 0.904014 0.429229 0.792517 0.0
C_ C_ 0.95148 0.411178 0.789981 0.0
C_ C_ 0.960415 0.382648 0.809458 0.0
C_ C_ 0.918896 0.36949 0.828147 0.0
C_ C_ 0.872534 0.386727 0.830331 0.0
C_ C_ 0.866599 0.418426 0.814781 0.0
C_ C_ 0.851898 0.379281 0.858527 0.0
C_ C_ 0.924449 0.351402 0.854984 0.0
C_ C_ 0.835724 0.269702 0.907908 0.0
C_ C_ 0.860926 0.294377 0.888186 0.0
C_ C_ 0.861855 0.330968 0.894794 0.0
C_ C_ 0.836823 0.341934 0.920973 0.0
C_ C_ 0.813523 0.316344 0.940606 0.0
C_ C_ 0.698628 0.46377 0.832722 0.0
C_ C_ 0.667933 0.455274 0.860336 0.0
C_ C_ 0.948927 0.466227 0.863507 0.0
C_ C_ 0.91998 0.458221 0.889932 0.0
C_ C_ 0.945562 0.442891 0.914044 0.0
C_ C_ 0.663388 0.431971 0.911023 0.0
C_ C_ 0.690729 0.43621 0.883871 0.0
C_ C_ 0.92031 0.420597 0.935137 0.0
C_ C_ 0.667221 0.403324 0.93031 0.0
C_ C_ 0.902952 0.342775 0.510949 0.0
C_ C_ 0.916792 0.37247 0.992992 0.0
C_ C_ 0.941206 0.367802 0.965202 0.0
C_ C_ 0.952968 0.333356 0.956373 0.0
C_ C_ 0.93921 0.304352 0.975242 0.0
C_ C_ 0.772014 0.289998 0.522948 0.0
C_ C_ 0.762653 0.320771 0.542517 0.0
C_ C_ 0.715187 0.338822 0.539981 0.0
C_ C_ 0.706251 0.367352 0.559458 0.0
C_ C_ 0.747771 0.38051 0.578147 0.0
C_ C_ 0.794133 0.363273 0.580331 0.0
C_ C_ 0.800068 0.331574 0.564781 0.0
C_ C_ 0.814769 0.370719 0.608527 0.0
C_ C_ 0.742217 0.398598 0.604984 0.0
C_ C_ 0.830943 0.480298 0.657908 0.0
C_ C_ 0.80574 0.455623 0.638186 0.0
C_ C_ 0.804812 0.419032 0.644794 0.0
C_ C_ 0.829843 0.408066 0.670973 0.0
C_ C_ 0.853144 0.433656 0.690606 0.0
C_ C_ 0.968039 0.28623 0.582722 0.0
C_ C_ 0.998734 0.294726 0.610336 0.0
C_ C_ 0.717739 0.283773 0.613507 0.0
C_ C_ 0.746686 0.291779 0.639932 0.0
C_ C_ 0.721104 0.307109 0.664044 0.0
C_ C_ 0.00327863 0.318029 0.661023 0.0
C_ C_ 0.975938 0.31379 0.633871 0.0
C_ C_ 0.746357 0.329403 0.685137 0.0
C_ C_ 0.999445 0.346676 0.68031 0.0
C_ C_ 0.763715 0.407225 0.760949 0.0
C_ C_ 0.749875 0.37753 0.742992 0.0
C_ C_ 0.725461 0.382198 0.715202 0.0
C_ C_ 0.713699 0.416644 0.706373 0.0
C_ C_ 0.727456 0.445648 0.725242 0.0
N_ N_ 0.852935 0.219087 0.566102 0.0
N_ N_ 0.783611 0.142872 0.626543 0.0
N_ N_ 0.711527 0.101806 0.55365 0.0
N_ N_ 0.754235 0.190701 0.4986 0.0
N_ N_ 0.813732 0.030913 0.816102 0.0
N_ N_ 0.883056 0.107128 0.876543 0.0
N_ N_ 0.95514 0.148194 0.80365 0.0
N_ N_ 0.912431 0.0592986 0.7486 0.0
N_ N_ 0.813732 0.280913 0.933898 0.0
N_ N_ 0.883056 0.357128 0.873457 0.0
N_ N_ 0.95514 0.398194 0.94635 0.0
N_ N_ 0.912431 0.309299 0.00139979 0.0
N_ N_ 0.852935 0.469087 0.683898 0.0
N_ N_ 0.783611 0.392872 0.623457 0.0
N_ N_ 0.711527 0.351806 0.69635 0.0
N_ N_ 0.754235 0.440701 0.7514 0.0
O_ O_ 0.79885 0.0149975 0.717173 0.0
O_ O_ 0.743984 0.0344756 0.750578 0.0
O_ O_ 0.695457 0.155721 0.634274 0.0
O_ O_ 0.865986 0.120132 0.63586 0.0
O_ O_ 0.925653 0.0510577 0.672831 0.0
O_ O_ 0.978891 0.0105991 0.684197 0.0
O_ O_ 0.95354 0.105994 0.559287 0.0
O_ O_ 0.78749 0.0699826 0.549288 0.0
O_ O_ 0.867816 0.235003 0.967173 0.0
O_ O_ 0.922682 0.215524 0.500578 0.0
O_ O_ 0.97121 0.094279 0.884274 0.0
O_ O_ 0.80068 0.129868 0.88586 0.0
O_ O_ 0.741013 0.198942 0.922831 0.0
O_ O_ 0.687776 0.239401 0.934197 0.0
O_ O_ 0.713127 0.144006 0.809287 0.0
O_ O_ 0.879177 0.180017 0.799288 0.0
O_ O_ 0.867816 0.485003 0.782827 0.0
O_ O_ 0.922682 0.465524 0.749422 0.0
O_ O_ 0.97121 0.344279 0.865726 0.0
O_ O_ 0.80068 0.379868 0.86414 0.0
O_ O_ 0.741013 0.448942 0.827169 0.0
O_ O_ 0.687776 0.489401 0.815803 0.0
O_ O_ 0.713127 0.394006 0.940713 0.0
O_ O_ 0.879177 0.430017 0.950712 0.0
O_ O_ 0.79885 0.264997 0.532827 0.0
O_ O_ 0.743984 0.284476 0.999422 0.0
O_ O_ 0.695457 0.405721 0.615726 0.0
O_ O_ 0.865986 0.370132 0.61414 0.0
O_ O_ 0.925653 0.301058 0.577169 0.0
O_ O_ 0.978891 0.260599 0.565803 0.0
O_ O_ 0.95354 0.355994 0.690713 0.0
O_ O_ 0.78749 0.319983 0.700712 0.0
Cd Cd 0.896835 0.511719 0.21467 0.0
Cd Cd 0.769832 0.738281 0.46467 0.0
Cd Cd 0.769832 0.988281 0.28533 0.0
Cd Cd 0.896835 0.761719 0.0353296 0.0
H_ H_ 0.684627 0.579745 0.225897 0.0
H_ H_ 0.00143727 0.629013 0.190298 0.0
H_ H_ 0.832225 0.565178 0.179747 0.0
H_ H_ 0.833728 0.758413 0.0976618 0.0
H_ H_ 0.78881 0.714791 0.132561 0.0
H_ H_ 0.832514 0.629969 0.0743557 0.0
H_ H_ 0.872183 0.675225 0.0391002 0.0
H_ H_ 0.736312 0.52026 0.154784 0.0
H_ H_ 0.788447 0.536785 0.108694 0.0
H_ H_ 0.937697 0.574876 0.118937 0.0
H_ H_ 0.778699 0.653364 0.46672 0.0
H_ H_ 0.756465 0.600974 0.998905 0.0
H_ H_ 0.693888 0.670902 0.0648075 0.0
H_ H_ 0.714938 0.721767 0.0303887 0.0
H_ H_ 0.98204 0.670255 0.475897 0.0
H_ H_ 0.665229 0.620987 0.440298 0.0
H_ H_ 0.834442 0.684822 0.429747 0.0
H_ H_ 0.832939 0.991587 0.347662 0.0
H_ H_ 0.877857 0.535209 0.382561 0.0
H_ H_ 0.834153 0.620031 0.324356 0.0
H_ H_ 0.794483 0.574775 0.2891 0.0
H_ H_ 0.930355 0.72974 0.404784 0.0
H_ H_ 0.87822 0.713215 0.358694 0.0
H_ H_ 0.728969 0.675124 0.368937 0.0
H_ H_ 0.887968 0.596636 0.21672 0.0
H_ H_ 0.910202 0.649026 0.248905 0.0
H_ H_ 0.972779 0.579098 0.314808 0.0
H_ H_ 0.951728 0.528233 0.280389 0.0
H_ H_ 0.98204 0.920255 0.274103 0.0
H_ H_ 0.665229 0.870987 0.309702 0.0
H_ H_ 0.834442 0.934822 0.320253 0.0
H_ H_ 0.832939 0.741587 0.402338 0.0
H_ H_ 0.877857 0.785209 0.367439 0.0
H_ H_ 0.834153 0.870031 0.425644 0.0
H_ H_ 0.794483 0.824775 0.4609 0.0
H_ H_ 0.930355 0.97974 0.345216 0.0
H_ H_ 0.87822 0.963215 0.391306 0.0
H_ H_ 0.728969 0.925124 0.381063 0.0
H_ H_ 0.887968 0.846636 0.0332805 0.0
H_ H_ 0.910202 0.899026 0.501095 0.0
H_ H_ 0.972779 0.829098 0.435192 0.0
H_ H_ 0.951728 0.778233 0.469611 0.0
H_ H_ 0.684627 0.829745 0.0241033 0.0
H_ H_ 0.00143726 0.879013 0.0597022 0.0
H_ H_ 0.832225 0.815178 0.0702528 0.0
H_ H_ 0.833728 0.508413 0.152338 0.0
H_ H_ 0.78881 0.964791 0.117439 0.0
H_ H_ 0.832514 0.879969 0.175644 0.0
H_ H_ 0.872183 0.925225 0.2109 0.0
H_ H_ 0.736312 0.77026 0.0952161 0.0
H_ H_ 0.788447 0.786785 0.141306 0.0
H_ H_ 0.937697 0.824876 0.131063 0.0
H_ H_ 0.778699 0.903364 0.28328 0.0
H_ H_ 0.756465 0.850974 0.251095 0.0
H_ H_ 0.693888 0.920902 0.185192 0.0
H_ H_ 0.714938 0.971767 0.219611 0.0
C_ C_ 0.772014 0.539998 0.227052 0.0
C_ C_ 0.762653 0.570771 0.207483 0.0
C_ C_ 0.715187 0.588822 0.210019 0.0
C_ C_ 0.706251 0.617352 0.190542 0.0
C_ C_ 0.747771 0.63051 0.171853 0.0
C_ C_ 0.794133 0.613273 0.169669 0.0
C_ C_ 0.800068 0.581574 0.185219 0.0
C_ C_ 0.814769 0.620719 0.141473 0.0
C_ C_ 0.742217 0.648598 0.145016 0.0
C_ C_ 0.830943 0.730298 0.0920919 0.0
C_ C_ 0.80574 0.705623 0.111814 0.0
C_ C_ 0.804812 0.669032 0.105206 0.0
C_ C_ 0.829843 0.658066 0.0790275 0.0
C_ C_ 0.853144 0.683656 0.0593936 0.0
C_ C_ 0.968039 0.53623 0.167278 0.0
C_ C_ 0.998734 0.544726 0.139664 0.0
C_ C_ 0.717739 0.533773 0.136493 0.0
C_ C_ 0.746686 0.541779 0.110068 0.0
C_ C_ 0.721104 0.557109 0.0859562 0.0
C_ C_ 0.00327863 0.568029 0.0889766 0.0
C_ C_ 0.975938 0.56379 0.116129 0.0
C_ C_ 0.746357 0.579403 0.0648629 0.0
C_ C_ 0.999445 0.596676 0.0696897 0.0
C_ C_ 0.763715 0.657225 0.489051 0.0
C_ C_ 0.749875 0.62753 0.00700845 0.0
C_ C_ 0.725461 0.632198 0.0347975 0.0
C_ C_ 0.713699 0.666644 0.0436273 0.0
C_ C_ 0.727456 0.695648 0.0247575 0.0
C_ C_ 0.894653 0.710002 0.477052 0.0
C_ C_ 0.904014 0.679229 0.457483 0.0
C_ C_ 0.95148 0.661178 0.460019 0.0
C_ C_ 0.960415 0.632648 0.440542 0.0
C_ C_ 0.918896 0.61949 0.421853 0.0
C_ C_ 0.872534 0.636727 0.419669 0.0
C_ C_ 0.866599 0.668426 0.435219 0.0
C_ C_ 0.851898 0.629281 0.391473 0.0
C_ C_ 0.924449 0.601402 0.395016 0.0
C_ C_ 0.835724 0.519702 0.342092 0.0
C_ C_ 0.860926 0.544377 0.361814 0.0
C_ C_ 0.861855 0.580968 0.355206 0.0
C_ C_ 0.836823 0.591934 0.329027 0.0
C_ C_ 0.813523 0.566344 0.309394 0.0
C_ C_ 0.698628 0.71377 0.417278 0.0
C_ C_ 0.667933 0.705274 0.389664 0.0
C_ C_ 0.948927 0.716227 0.386493 0.0
C_ C_ 0.91998 0.708221 0.360068 0.0
C_ C_ 0.945562 0.692891 0.335956 0.0
C_ C_ 0.663388 0.681971 0.338977 0.0
C_ C_ 0.690729 0.68621 0.366129 0.0
C_ C_ 0.92031 0.670597 0.314863 0.0
C_ C_ 0.667221 0.653324 0.31969 0.0
C_ C_ 0.902952 0.592775 0.239051 0.0
C_ C_ 0.916792 0.62247 0.257008 0.0
C_ C_ 0.941206 0.617802 0.284798 0.0
C_ C_ 0.952968 0.583356 0.293627 0.0
C_ C_ 0.93921 0.554352 0.274758 0.0
C_ C_ 0.894653 0.960002 0.272948 0.0
C_ C_ 0.904014 0.929229 0.292517 0.0
C_ C_ 0.95148 0.911178 0.289981 0.0
C_ C_ 0.960415 0.882648 0.309458 0.0
C_ C_ 0.918896 0.86949 0.328147 0.0
C_ C_ 0.872534 0.886727 0.330331 0.0
C_ C_ 0.866599 0.918426 0.314781 0.0
C_ C_ 0.851898 0.879281 0.358527 0.0
C_ C_ 0.924449 0.851402 0.354984 0.0
C_ C_ 0.835724 0.769702 0.407908 0.0
C_ C_ 0.860926 0.794377 0.388186 0.0
C_ C_ 0.861855 0.830968 0.394794 0.0
C_ C_ 0.836823 0.841934 0.420973 0.0
C_ C_ 0.813523 0.816344 0.440606 0.0
C_ C_ 0.698628 0.96377 0.332722 0.0
C_ C_ 0.667933 0.955274 0.360336 0.0
C_ C_ 0.948927 0.966227 0.363507 0.0
C_ C_ 0.91998 0.958221 0.389932 0.0
C_ C_ 0.945562 0.942891 0.414044 0.0
C_ C_ 0.663388 0.931971 0.411023 0.0
C_ C_ 0.690729 0.93621 0.383871 0.0
C_ C_ 0.92031 0.920597 0.435137 0.0
C_ C_ 0.667221 0.903324 0.43031 0.0
C_ C_ 0.902952 0.842775 0.010949 0.0
C_ C_ 0.916792 0.87247 0.492992 0.0
C_ C_ 0.941206 0.867802 0.465202 0.0
C_ C_ 0.952968 0.833356 0.456373 0.0
C_ C_ 0.93921 0.804352 0.475242 0.0
C_ C_ 0.772014 0.789998 0.0229477 0.0
C_ C_ 0.762653 0.820771 0.0425173 0.0
C_ C_ 0.715187 0.838822 0.0399812 0.0
C_ C_ 0.706251 0.867352 0.0594584 0.0
C_ C_ 0.747771 0.88051 0.0781469 0.0
C_ C_ 0.794133 0.863273 0.0803307 0.0
C_ C_ 0.800068 0.831574 0.0647812 0.0
C_ C_ 0.814769 0.870719 0.108527 0.0
C_ C_ 0.742217 0.898598 0.104984 0.0
C_ C_ 0.830943 0.980298 0.157908 0.0
C_ C_ 0.80574 0.955623 0.138186 0.0
C_ C_ 0.804812 0.919032 0.144794 0.0
C_ C_ 0.829843 0.908066 0.170973 0.0
C_ C_ 0.853144 0.933656 0.190606 0.0
C_ C_ 0.968039 0.78623 0.0827219 0.0
C_ C_ 0.998734 0.794726 0.110336 0.0
C_ C_ 0.717739 0.783773 0.113507 0.0
C_ C_ 0.746686 0.791779 0.139932 0.0
C_ C_ 0.721104 0.807109 0.164044 0.0
C_ C_ 0.00327862 0.818029 0.161023 0.0
C_ C_ 0.975938 0.81379 0.133871 0.0
C_ C_ 0.746357 0.829403 0.185137 0.0
C_ C_ 0.999445 0.846676 0.18031 0.0
C_ C_ 0.763715 0.907225 0.260949 0.0
C_ C_ 0.749875 0.87753 0.242992 0.0
C_ C_ 0.725461 0.882198 0.215202 0.0
C_ C_ 0.713699 0.916644 0.206373 0.0
C_ C_ 0.727456 0.945648 0.225242 0.0
N_ N_ 0.852935 0.719087 0.066102 0.0
N_ N_ 0.783611 0.642872 0.126543 0.0
N_ N_ 0.711527 0.601806 0.0536496 0.0
N_ N_ 0.754235 0.690701 0.9986 0.0
N_ N_ 0.813732 0.530913 0.316102 0.0
N_ N_ 0.883056 0.607128 0.376543 0.0
N_ N_ 0.95514 0.648194 0.30365 0.0
N_ N_ 0.912431 0.559299 0.2486 0.0
N_ N_ 0.813732 0.780913 0.433898 0.0
N_ N_ 0.883056 0.857128 0.373457 0.0
N_ N_ 0.95514 0.898194 0.44635 0.0
N_ N_ 0.912431 0.809299 0.5014 0.0
N_ N_ 0.852935 0.969087 0.183898 0.0
N_ N_ 0.783611 0.892872 0.123457 0.0
N_ N_ 0.711527 0.851806 0.19635 0.0
N_ N_ 0.754235 0.940701 0.2514 0.0
O_ O_ 0.79885 0.514997 0.217173 0.0
O_ O_ 0.743984 0.534476 0.250578 0.0
O_ O_ 0.695457 0.655721 0.134274 0.0
O_ O_ 0.865986 0.620132 0.13586 0.0
O_ O_ 0.925653 0.551058 0.172831 0.0
O_ O_ 0.978891 0.510599 0.184197 0.0
O_ O_ 0.95354 0.605994 0.059287 0.0
O_ O_ 0.78749 0.569983 0.0492879 0.0
O_ O_ 0.867816 0.735003 0.467173 0.0
O_ O_ 0.922682 0.715524 0.000578323 0.0
O_ O_ 0.97121 0.594279 0.384274 0.0
O_ O_ 0.80068 0.629868 0.38586 0.0
O_ O_ 0.741013 0.698942 0.422831 0.0
O_ O_ 0.687776 0.739401 0.434197 0.0
O_ O_ 0.713127 0.644007 0.309287 0.0
O_ O_ 0.879177 0.680017 0.299288 0.0
O_ O_ 0.867816 0.985003 0.282827 0.0
O_ O_ 0.922682 0.965524 0.249422 0.0
O_ O_ 0.97121 0.844279 0.365726 0.0
O_ O_ 0.80068 0.879868 0.36414 0.0
O_ O_ 0.741013 0.948942 0.327169 0.0
O_ O_ 0.687776 0.989401 0.315803 0.0
O_ O_ 0.713127 0.894007 0.440713 0.0
O_ O_ 0.879177 0.930017 0.450712 0.0
O_ O_ 0.79885 0.764997 0.032827 0.0
O_ O_ 0.743984 0.784476 0.499422 0.0
O_ O_ 0.695457 0.905721 0.115726 0.0
O_ O_ 0.865986 0.870132 0.11414 0.0
O_ O_ 0.925653 0.801058 0.0771694 0.0
O_ O_ 0.978891 0.760599 0.0658027 0.0
O_ O_ 0.95354 0.855994 0.190713 0.0
O_ O_ 0.78749 0.819983 0.200712 0.0
Cd Cd 0.896835 0.511719 0.71467 0.0
Cd Cd 0.769832 0.738281 0.96467 0.0
Cd Cd 0.769832 0.988281 0.78533 0.0
Cd Cd 0.896835 0.761719 0.53533 0.0
H_ H_ 0.684627 0.579745 0.725897 0.0
H_ H_ 0.00143727 0.629013 0.690298 0.0
H_ H_ 0.832225 0.565178 0.679747 0.0
H_ H_ 0.833728 0.758413 0.597662 0.0
H_ H_ 0.78881 0.714791 0.632561 0.0
H_ H_ 0.832514 0.629969 0.574356 0.0
H_ H_ 0.872183 0.675225 0.5391 0.0
H_ H_ 0.736312 0.52026 0.654784 0.0
H_ H_ 0.788447 0.536785 0.608694 0.0
H_ H_ 0.937697 0.574876 0.618937 0.0
H_ H_ 0.778699 0.653364 0.96672 0.0
H_ H_ 0.756465 0.600974 0.498905 0.0
H_ H_ 0.693888 0.670902 0.564808 0.0
H_ H_ 0.714938 0.721767 0.530389 0.0
H_ H_ 0.98204 0.670255 0.975897 0.0
H_ H_ 0.665229 0.620987 0.940298 0.0
H_ H_ 0.834442 0.684822 0.929747 0.0
H_ H_ 0.832939 0.991587 0.847662 0.0
H_ H_ 0.877857 0.535209 0.882561 0.0
H_ H_ 0.834153 0.620031 0.824356 0.0
H_ H_ 0.794483 0.574775 0.7891 0.0
H_ H_ 0.930355 0.72974 0.904784 0.0
H_ H_ 0.87822 0.713215 0.858694 0.0
H_ H_ 0.728969 0.675124 0.868937 0.0
H_ H_ 0.887968 0.596636 0.71672 0.0
H_ H_ 0.910202 0.649026 0.748905 0.0
H_ H_ 0.972779 0.579098 0.814808 0.0
H_ H_ 0.951728 0.528233 0.780389 0.0
H_ H_ 0.98204 0.920255 0.774103 0.0
H_ H_ 0.665229 0.870987 0.809702 0.0
H_ H_ 0.834442 0.934822 0.820253 0.0
H_ H_ 0.832939 0.741587 0.902338 0.0
H_ H_ 0.877857 0.785209 0.867439 0.0
H_ H_ 0.834153 0.870031 0.925644 0.0
H_ H_ 0.794483 0.824775 0.9609 0.0
H_ H_ 0.930355 0.97974 0.845216 0.0
H_ H_ 0.87822 0.963215 0.891306 0.0
H_ H_ 0.728969 0.925124 0.881063 0.0
H_ H_ 0.887968 0.846636 0.53328 0.0
H_ H_ 0.910202 0.899026 0.00109454 0.0
H_ H_ 0.972779 0.829098 0.935192 0.0
H_ H_ 0.951728 0.778233 0.969611 0.0
H_ H_ 0.684627 0.829745 0.524103 0.0
H_ H_ 0.00143726 0.879013 0.559702 0.0
H_ H_ 0.832225 0.815178 0.570253 0.0
H_ H_ 0.833728 0.508413 0.652338 0.0
H_ H_ 0.78881 0.964791 0.617439 0.0
H_ H_ 0.832514 0.879969 0.675644 0.0
H_ H_ 0.872183 0.925225 0.7109 0.0
H_ H_ 0.736312 0.77026 0.595216 0.0
H_ H_ 0.788447 0.786785 0.641306 0.0
H_ H_ 0.937697 0.824876 0.631063 0.0
H_ H_ 0.778699 0.903364 0.78328 0.0
H_ H_ 0.756465 0.850974 0.751095 0.0
H_ H_ 0.693888 0.920902 0.685192 0.0
H_ H_ 0.714938 0.971767 0.719611 0.0
C_ C_ 0.772014 0.539998 0.727052 0.0
C_ C_ 0.762653 0.570771 0.707483 0.0
C_ C_ 0.715187 0.588822 0.710019 0.0
C_ C_ 0.706251 0.617352 0.690542 0.0
C_ C_ 0.747771 0.63051 0.671853 0.0
C_ C_ 0.794133 0.613273 0.669669 0.0
C_ C_ 0.800068 0.581574 0.685219 0.0
C_ C_ 0.814769 0.620719 0.641473 0.0
C_ C_ 0.742217 0.648598 0.645016 0.0
C_ C_ 0.830943 0.730298 0.592092 0.0
C_ C_ 0.80574 0.705623 0.611814 0.0
C_ C_ 0.804812 0.669032 0.605206 0.0
C_ C_ 0.829843 0.658066 0.579027 0.0
C_ C_ 0.853144 0.683656 0.559394 0.0
C_ C_ 0.968039 0.53623 0.667278 0.0
C_ C_ 0.998734 0.544726 0.639664 0.0
C_ C_ 0.717739 0.533773 0.636493 0.0
C_ C_ 0.746686 0.541779 0.610068 0.0
C_ C_ 0.721104 0.557109 0.585956 0.0
C_ C_ 0.00327863 0.568029 0.588977 0.0
C_ C_ 0.975938 0.56379 0.616129 0.0
C_ C_ 0.746357 0.579403 0.564863 0.0
C_ C_ 0.999445 0.596676 0.56969 0.0
C_ C_ 0.763715 0.657225 0.989051 0.0
C_ C_ 0.749875 0.62753 0.507008 0.0
C_ C_ 0.725461 0.632198 0.534798 0.0
C_ C_ 0.713699 0.666644 0.543627 0.0
C_ C_ 0.727456 0.695648 0.524758 0.0
C_ C_ 0.894653 0.710002 0.977052 0.0
C_ C_ 0.904014 0.679229 0.957483 0.0
C_ C_ 0.95148 0.661178 0.960019 0.0
C_ C_ 0.960415 0.632648 0.940542 0.0
C_ C_ 0.918896 0.61949 0.921853 0.0
C_ C_ 0.872534 0.636727 0.919669 0.0
C_ C_ 0.866599 0.668426 0.935219 0.0
C_ C_ 0.851898 0.629281 0.891473 0.0
C_ C_ 0.924449 0.601402 0.895016 0.0
C_ C_ 0.835724 0.519702 0.842092 0.0
C_ C_ 0.860926 0.544377 0.861814 0.0
C_ C_ 0.861855 0.580968 0.855206 0.0
C_ C_ 0.836823 0.591934 0.829027 0.0
C_ C_ 0.813523 0.566344 0.809394 0.0
C_ C_ 0.698628 0.71377 0.917278 0.0
C_ C_ 0.667933 0.705274 0.889664 0.0
C_ C_ 0.948927 0.716227 0.886493 0.0
C_ C_ 0.91998 0.708221 0.860068 0.0
C_ C_ 0.945562 0.692891 0.835956 0.0
C_ C_ 0.663388 0.681971 0.838977 0.0
C_ C_ 0.690729 0.68621 0.866129 0.0
C_ C_ 0.92031 0.670597 0.814863 0.0
C_ C_ 0.667221 0.653324 0.81969 0.0
C_ C_ 0.902952 0.592775 0.739051 0.0
C_ C_ 0.916792 0.62247 0.757008 0.0
C_ C_ 0.941206 0.617802 0.784798 0.0
C_ C_ 0.952968 0.583356 0.793627 0.0
C_ C_ 0.93921 0.554352 0.774758 0.0
C_ C_ 0.894653 0.960002 0.772948 0.0
C_ C_ 0.904014 0.929229 0.792517 0.0
C_ C_ 0.95148 0.911178 0.789981 0.0
C_ C_ 0.960415 0.882648 0.809458 0.0
C_ C_ 0.918896 0.86949 0.828147 0.0
C_ C_ 0.872534 0.886727 0.830331 0.0
C_ C_ 0.866599 0.918426 0.814781 0.0
C_ C_ 0.851898 0.879281 0.858527 0.0
C_ C_ 0.924449 0.851402 0.854984 0.0
C_ C_ 0.835724 0.769702 0.907908 0.0
C_ C_ 0.860926 0.794377 0.888186 0.0
C_ C_ 0.861855 0.830968 0.894794 0.0
C_ C_ 0.836823 0.841934 0.920973 0.0
C_ C_ 0.813523 0.816344 0.940606 0.0
C_ C_ 0.698628 0.96377 0.832722 0.0
C_ C_ 0.667933 0.955274 0.860336 0.0
C_ C_ 0.948927 0.966227 0.863507 0.0
C_ C_ 0.91998 0.958221 0.889932 0.0
C_ C_ 0.945562 0.942891 0.914044 0.0
C_ C_ 0.663388 0.931971 0.911023 0.0
C_ C_ 0.690729 0.93621 0.883871 0.0
C_ C_ 0.92031 0.920597 0.935137 0.0
C_ C_ 0.667221 0.903324 0.93031 0.0
C_ C_ 0.902952 0.842775 0.510949 0.0
C_ C_ 0.916792 0.87247 0.992992 0.0
C_ C_ 0.941206 0.867802 0.965202 0.0
C_ C_ 0.952968 0.833356 0.956373 0.0
C_ C_ 0.93921 0.804352 0.975242 0.0
C_ C_ 0.772014 0.789998 0.522948 0.0
C_ C_ 0.762653 0.820771 0.542517 0.0
C_ C_ 0.715187 0.838822 0.539981 0.0
C_ C_ 0.706251 0.867352 0.559458 0.0
C_ C_ 0.747771 0.88051 0.578147 0.0
C_ C_ 0.794133 0.863273 0.580331 0.0
C_ C_ 0.800068 0.831574 0.564781 0.0
C_ C_ 0.814769 0.870719 0.608527 0.0
C_ C_ 0.742217 0.898598 0.604984 0.0
C_ C_ 0.830943 0.980298 0.657908 0.0
C_ C_ 0.80574 0.955623 0.638186 0.0
C_ C_ 0.804812 0.919032 0.644794 0.0
C_ C_ 0.829843 0.908066 0.670973 0.0
C_ C_ 0.853144 0.933656 0.690606 0.0
C_ C_ 0.968039 0.78623 0.582722 0.0
C_ C_ 0.998734 0.794726 0.610336 0.0
C_ C_ 0.717739 0.783773 0.613507 0.0
C_ C_ 0.746686 0.791779 0.639932 0.0
C_ C_ 0.721104 0.807109 0.664044 0.0
C_ C_ 0.00327862 0.818029 0.661023 0.0
C_ C_ 0.975938 0.81379 0.633871 0.0
C_ C_ 0.746357 0.829403 0.685137 0.0
C_ C_ 0.999445 0.846676 0.68031 0.0
C_ C_ 0.763715 0.907225 0.760949 0.0
C_ C_ 0.749875 0.87753 0.742992 0.0
C_ C_ 0.725461 0.882198 0.715202 0.0
C_ C_ 0.713699 0.916644 0.706373 0.0
C_ C_ 0.727456 0.945648 0.725242 0.0
N_ N_ 0.852935 0.719087 0.566102 0.0
N_ N_ 0.783611 0.642872 0.626543 0.0
N_ N_ 0.711527 0.601806 0.55365 0.0
N_ N_ 0.754235 0.690701 0.4986 0.0
N_ N_ 0.813732 0.530913 0.816102 0.0
N_ N_ 0.883056 0.607128 0.876543 0.0
N_ N_ 0.95514 0.648194 0.80365 0.0
N_ N_ 0.912431 0.559299 0.7486 0.0
N_ N_ 0.813732 0.780913 0.933898 0.0
N_ N_ 0.883056 0.857128 0.873457 0.0
N_ N_ 0.95514 0.898194 0.94635 0.0
N_ N_ 0.912431 0.809299 0.00139979 0.0
N_ N_ 0.852935 0.969087 0.683898 0.0
N_ N_ 0.783611 0.892872 0.623457 0.0
N_ N_ 0.711527 0.851806 0.69635 0.0
N_ N_ 0.754235 0.940701 0.7514 0.0
O_ O_ 0.79885 0.514997 0.717173 0.0
O_ O_ 0.743984 0.534476 0.750578 0.0
O_ O_ 0.695457 0.655721 0.634274 0.0
O_ O_ 0.865986 0.620132 0.63586 0.0
O_ O_ 0.925653 0.551058 0.672831 0.0
O_ O_ 0.978891 0.510599 0.684197 0.0
O_ O_ 0.95354 0.605994 0.559287 0.0
O_ O_ 0.78749 0.569983 0.549288 0.0
O_ O_ 0.867816 0.735003 0.967173 0.0
O_ O_ 0.922682 0.715524 0.500578 0.0
O_ O_ 0.97121 0.594279 0.884274 0.0
O_ O_ 0.80068 0.629868 0.88586 0.0
O_ O_ 0.741013 0.698942 0.922831 0.0
O_ O_ 0.687776 0.739401 0.934197 0.0
O_ O_ 0.713127 0.644007 0.809287 0.0
O_ O_ 0.879177 0.680017 0.799288 0.0
O_ O_ 0.867816 0.985003 0.782827 0.0
O_ O_ 0.922682 0.965524 0.749422 0.0
O_ O_ 0.97121 0.844279 0.865726 0.0
O_ O_ 0.80068 0.879868 0.86414 0.0
O_ O_ 0.741013 0.948942 0.827169 0.0
O_ O_ 0.687776 0.989401 0.815803 0.0
O_ O_ 0.713127 0.894007 0.940713 0.0
O_ O_ 0.879177 0.930017 0.950712 0.0
O_ O_ 0.79885 0.764997 0.532827 0.0
O_ O_ 0.743984 0.784476 0.999422 0.0
O_ O_ 0.695457 0.905721 0.615726 0.0
O_ O_ 0.865986 0.870132 0.61414 0.0
O_ O_ 0.925653 0.801058 0.577169 0.0
O_ O_ 0.978891 0.760599 0.565803 0.0
O_ O_ 0.95354 0.855994 0.690713 0.0
O_ O_ 0.78749 0.819983 0.700712 0.0
