_cell_length_a 25.179
_cell_length_b 37.484199844079754
_cell_length_c 44.4702
_cell_angle_alpha 90.0
_cell_angle_beta 90.0
_cell_angle_gamma 94.03100043039683
_symmetry_space_group_name_H-M         'P 1'
_symmetry_Int_Tables_number            1
loop_
_symmetry_equiv_pos_as_xyz
   'x, y, z'
                         
loop_
_atom_site_label
_atom_site_type_symbol
_atom_site_fract_x 
_atom_site_fract_y
_atom_site_fract_z
_atom_site_charge
Cd Cd 0.2341 0.0160073 0.211339 0.0
Cd Cd 0.103553 0.236486 0.464636 0.0
Cd Cd 0.101398 0.486117 0.287046 0.0
Cd Cd 0.235923 0.256371 0.0322232 0.0
H_ H_ 0.021909 0.0815762 0.225917 0.0
H_ H_ 0.370721 0.151661 0.20625 0.0
H_ H_ 0.165911 0.0626954 0.18192 0.0
H_ H_ 0.167707 0.261039 0.0959332 0.0
H_ H_ 0.137663 0.222877 0.137526 0.0
H_ H_ 0.168099 0.131594 0.0858153 0.0
H_ H_ 0.192762 0.172767 0.0410746 0.0
H_ H_ 0.0713545 0.0215725 0.154068 0.0
H_ H_ 0.124338 0.0462773 0.110995 0.0
H_ H_ 0.285667 0.0922773 0.119961 0.0
H_ H_ 0.0983318 0.147089 0.463563 0.0
H_ H_ 0.0821817 0.0996679 0.99642532 0.0
H_ H_ 0.0318817 0.170508 0.0639586 0.0
H_ H_ 0.0559347 0.22403 0.0298057 0.0
H_ H_ 0.307619 0.16001 0.482707 0.0
H_ H_ 0.996736 0.118757 0.442469 0.0
H_ H_ 0.169951 0.179244 0.427248 0.0
H_ H_ 0.149363 0.48507 0.353488 0.0
H_ H_ 0.187861 0.0176835 0.391391 0.0
H_ H_ 0.193374 0.104743 0.331452 0.0
H_ H_ 0.170808 0.0630644 0.290036 0.0
H_ H_ 0.263493 0.233367 0.400519 0.0
H_ H_ 0.209981 0.214239 0.355711 0.0
H_ H_ 0.056912 0.172625 0.367875 0.0
H_ H_ 0.224109 0.0991974 0.212892 0.0
H_ H_ 0.253651 0.154092 0.243759 0.0
H_ H_ 0.312993 0.0830072 0.309088 0.0
H_ H_ 0.294466 0.0333922 0.275745 0.0
H_ H_ 0.287407 0.406164 0.259834 0.0
H_ H_ 0.99424453 0.366257 0.305429 0.0
H_ H_ 0.171058 0.438039 0.323317 0.0
H_ H_ 0.153228 0.318575 0.4543 0.0
H_ H_ 0.190499 0.35704 0.414172 0.0
H_ H_ 0.178168 0.271034 0.353125 0.0
H_ H_ 0.143607 0.232242 0.39373 0.0
H_ H_ 0.261254 0.469361 0.347655 0.0
H_ H_ 0.213074 0.457924 0.394537 0.0
H_ H_ 0.0630544 0.424308 0.382759 0.0
H_ H_ 0.224353 0.339498 0.0295993 0.0
H_ H_ 0.273602 0.400814 0.511017 0.0
H_ H_ 0.295092 0.335887 0.434553 0.0
H_ H_ 0.274952 0.281052 0.467249 0.0
H_ H_ 0.0293992 0.338548 0.0169236 0.0
H_ H_ 0.333344 0.371706 0.0588404 0.0
H_ H_ 0.169847 0.315907 0.0689407 0.0
H_ H_ 0.193398 0.0125638 0.143609 0.0
H_ H_ 0.152504 0.465563 0.106873 0.0
H_ H_ 0.153857 0.389368 0.180262 0.0
H_ H_ 0.185515 0.435934 0.213519 0.0
H_ H_ 0.0643644 0.259678 0.101182 0.0
H_ H_ 0.117833 0.280285 0.145548 0.0
H_ H_ 0.276954 0.326253 0.120321 0.0
H_ H_ 0.134073 0.404872 0.273594 0.0
H_ H_ 0.0974968 0.353119 0.247991 0.0
H_ H_ 0.0225408 0.419795 0.186502 0.0
H_ H_ 0.0352699 0.469379 0.222402 0.0
C_ C_ 0.105133 0.0395123 0.229171 0.0
C_ C_ 0.0927378 0.0672039 0.205642 0.0
C_ C_ 0.0469797 0.0850903 0.207194 0.0
C_ C_ 0.0364732 0.112093 0.186949 0.0
C_ C_ 0.069134 0.115857 0.160981 0.0
C_ C_ 0.114273 0.0976961 0.158312 0.0
C_ C_ 0.126662 0.073527 0.180688 0.0
C_ C_ 0.151879 0.121702 0.14347 0.0
C_ C_ 0.077899 0.149459 0.145864 0.0
C_ C_ 0.166572 0.23474 0.0921756 0.0
C_ C_ 0.149002 0.212277 0.116144 0.0
C_ C_ 0.147277 0.174663 0.113381 0.0
C_ C_ 0.168318 0.161489 0.086872 0.0
C_ C_ 0.179421 0.184749 0.0621628 0.0
C_ C_ 0.307539 0.0398463 0.164153 0.0
C_ C_ 0.334449 0.0467261 0.134404 0.0
C_ C_ 0.050485 0.0334438 0.135858 0.0
C_ C_ 0.0809642 0.0463597 0.109648 0.0
C_ C_ 0.0550373 0.0595493 0.0856367 0.0
C_ C_ 0.328463 0.0699244 0.0833643 0.0
C_ C_ 0.312173 0.072462 0.113734 0.0
C_ C_ 0.0795052 0.0819717 0.0647573 0.0
C_ C_ 0.326425 0.0977622 0.0629778 0.0
C_ C_ 0.0883207 0.15351 0.487206 0.0
C_ C_ 0.0807958 0.126652 0.00559884 0.0
C_ C_ 0.0567427 0.131599 0.0329894 0.0
C_ C_ 0.0509877 0.165863 0.0427059 0.0
C_ C_ 0.0616769 0.195201 0.0225634 0.0
C_ C_ 0.229762 0.206736 0.475325 0.0
C_ C_ 0.235816 0.173564 0.458392 0.0
C_ C_ 0.277626 0.151055 0.466193 0.0
C_ C_ 0.28068 0.118449 0.451926 0.0
C_ C_ 0.23969 0.105762 0.43273 0.0
C_ C_ 0.201523 0.127463 0.424602 0.0
C_ C_ 0.198245 0.161702 0.43693 0.0
C_ C_ 0.182997 0.117022 0.396217 0.0
C_ C_ 0.243835 0.0808659 0.410472 0.0
C_ C_ 0.159861 0.00707909 0.346778 0.0
C_ C_ 0.179792 0.0281544 0.369437 0.0
C_ C_ 0.194489 0.0652499 0.363477 0.0
C_ C_ 0.18329 0.0781685 0.335203 0.0
C_ C_ 0.169452 0.0540302 0.312242 0.0
C_ C_ 0.0331354 0.212432 0.415983 0.0
C_ C_ 0.00127482 0.204105 0.389699 0.0
C_ C_ 0.279931 0.216023 0.384453 0.0
C_ C_ 0.247508 0.203045 0.360777 0.0
C_ C_ 0.266259 0.174716 0.343892 0.0
C_ C_ 0.997193 0.182879 0.337422 0.0
C_ C_ 0.023959 0.186176 0.365495 0.0
C_ C_ 0.253189 0.169213 0.313781 0.0
C_ C_ 0.00140242 0.155388 0.318741 0.0
C_ C_ 0.238716 0.0970513 0.235335 0.0
C_ C_ 0.253751 0.12682 0.252913 0.0
C_ C_ 0.277308 0.121433 0.280847 0.0
C_ C_ 0.294563 0.0875657 0.288237 0.0
C_ C_ 0.281627 0.0592482 0.26939 0.0
C_ C_ 0.230107 0.463567 0.274421 0.0
C_ C_ 0.230878 0.428794 0.289273 0.0
C_ C_ 0.269762 0.404203 0.281058 0.0
C_ C_ 0.278275 0.37461 0.298547 0.0
C_ C_ 0.256392 0.372645 0.327218 0.0
C_ C_ 0.218403 0.395503 0.335563 0.0
C_ C_ 0.201641 0.421295 0.316011 0.0
C_ C_ 0.182223 0.375439 0.353217 0.0
C_ C_ 0.244748 0.341108 0.341154 0.0
C_ C_ 0.160252 0.30799 0.432206 0.0
C_ C_ 0.1764 0.331146 0.408842 0.0
C_ C_ 0.181959 0.31798 0.379624 0.0
C_ C_ 0.171147 0.282218 0.374446 0.0
C_ C_ 0.156826 0.258868 0.398899 0.0
C_ C_ 0.0351353 0.461802 0.333196 0.0
C_ C_ 0.0007299999999998974 0.451479 0.35947 0.0
C_ C_ 0.283471 0.462291 0.367989 0.0
C_ C_ 0.255364 0.453562 0.39388 0.0
C_ C_ 0.282953 0.445479 0.420334 0.0
C_ C_ 0.99701 0.432332 0.412395 0.0
C_ C_ 0.0246325 0.434652 0.38484 0.0
C_ C_ 0.260746 0.424389 0.443454 0.0
C_ C_ 0.00082332 0.404271 0.431424 0.0
C_ C_ 0.241874 0.336114 0.00874023 0.0
C_ C_ 0.269491 0.375678 0.500964 0.0
C_ C_ 0.283957 0.373566 0.471702 0.0
C_ C_ 0.282891 0.339563 0.458559 0.0
C_ C_ 0.26673 0.309487 0.476076 0.0
C_ C_ 0.112013 0.291784 0.0191976 0.0
C_ C_ 0.100216 0.321119 0.0407924 0.0
C_ C_ 0.051433 0.34033 0.0375044 0.0
C_ C_ 0.0410769 0.367012 0.0597087 0.0
C_ C_ 0.0710492 0.368682 0.086593 0.0
C_ C_ 0.115255 0.350601 0.0895099 0.0
C_ C_ 0.133083 0.328351 0.0664788 0.0
C_ C_ 0.146634 0.367616 0.111497 0.0
C_ C_ 0.0751558 0.398182 0.107455 0.0
C_ C_ 0.171598 0.486172 0.151564 0.0
C_ C_ 0.157184 0.45873 0.131554 0.0
C_ C_ 0.145598 0.424064 0.142633 0.0
C_ C_ 0.160734 0.416088 0.172301 0.0
C_ C_ 0.17704 0.442222 0.191515 0.0
C_ C_ 0.30592 0.278159 0.0812694 0.0
C_ C_ 0.333516 0.288128 0.108984 0.0
C_ C_ 0.0508553 0.281345 0.114449 0.0
C_ C_ 0.078683 0.289816 0.141852 0.0
C_ C_ 0.052021 0.303902 0.165526 0.0
C_ C_ 0.333498 0.319695 0.157004 0.0
C_ C_ 0.310531 0.31239 0.128195 0.0
C_ C_ 0.0769636 0.326136 0.187676 0.0
C_ C_ 0.329914 0.349563 0.174332 0.0
C_ C_ 0.105789 0.408202 0.256558 0.0
C_ C_ 0.0877339 0.378347 0.240549 0.0
C_ C_ 0.0600357 0.383022 0.214359 0.0
C_ C_ 0.0452297 0.416154 0.205761 0.0
C_ C_ 0.0537277 0.444773 0.22554 0.0
N_ N_ 0.17988 0.22103 0.0656197 0.0
N_ N_ 0.128789 0.151355 0.136086 0.0
N_ N_ 0.044698 0.103034 0.0536134 0.0
N_ N_ 0.0862917 0.189961 0.996152 0.0
N_ N_ 0.155205 0.0193112 0.318212 0.0
N_ N_ 0.211614 0.0893131 0.387 0.0
N_ N_ 0.291207 0.152459 0.299284 0.0
N_ N_ 0.251957 0.0638147 0.243672 0.0
N_ N_ 0.148772 0.273205 0.426894 0.0
N_ N_ 0.198051 0.341871 0.35594 0.0
N_ N_ 0.297336 0.405319 0.454877 0.0
N_ N_ 0.249379 0.313577 0.504348 0.0
N_ N_ 0.185516 0.476789 0.180874 0.0
N_ N_ 0.122513 0.396792 0.122141 0.0
N_ N_ 0.0450427 0.351805 0.196015 0.0
N_ N_ 0.08907 0.441669 0.250405 0.0
O_ O_ 0.135634 0.0150197 0.22097 0.0
O_ O_ 0.0783297 0.0348194 0.253071 0.0
O_ O_ 0.0546889 0.177833 0.154533 0.0
O_ O_ 0.203144 0.122066 0.149336 0.0
O_ O_ 0.27039 0.0584371 0.173406 0.0
O_ O_ 0.311198 0.0104218 0.177438 0.0
O_ O_ 0.285558 0.120228 0.0610834 0.0
O_ O_ 0.123795 0.0752294 0.0505667 0.0
O_ O_ 0.202798 0.231111 0.464756 0.0
O_ O_ 0.254215 0.206138 0.00290675 0.0
O_ O_ 0.289002 0.06686 0.405075 0.0
O_ O_ 0.156364 0.135948 0.378161 0.0
O_ O_ 0.0745927 0.1963 0.422887 0.0
O_ O_ 0.0224621 0.237699 0.433525 0.0
O_ O_ 0.0472173 0.143476 0.309124 0.0
O_ O_ 0.202148 0.16697 0.304347 0.0
O_ O_ 0.199866 0.487178 0.284191 0.0
O_ O_ 0.261053 0.470868 0.251156 0.0
O_ O_ 0.256272 0.309526 0.328399 0.0
O_ O_ 0.131105 0.381579 0.355671 0.0
O_ O_ 0.0723581 0.442757 0.324544 0.0
O_ O_ 0.0238166 0.489158 0.317046 0.0
O_ O_ 0.0460299 0.389836 0.439435 0.0
O_ O_ 0.21027 0.413494 0.445282 0.0
O_ O_ 0.134992 0.265437 0.029557 0.0
O_ O_ 0.0763279 0.28541 0.494761 0.0
O_ O_ 0.0515397 0.428862 0.103756 0.0
O_ O_ 0.198857 0.369088 0.110295 0.0
O_ O_ 0.275784 0.299703 0.0686813 0.0
O_ O_ 0.306061 0.246748 0.0703553 0.0
O_ O_ 0.305677 0.377748 0.166529 0.0
O_ O_ 0.12944 0.3289 0.190617 0.0
Cd Cd 0.232676 0.00939237 0.713756 0.0
Cd Cd 0.106297 0.236789 0.961648 0.0
Cd Cd 0.102176 0.490568 0.787021 0.0
Cd Cd 0.230674 0.259809 0.534235 0.0
H_ H_ 0.0146498 0.0776345 0.725113 0.0
H_ H_ 0.42096 0.165089 0.725353 0.0
H_ H_ 0.168024 0.0660393 0.682034 0.0
H_ H_ 0.163346 0.256117 0.595444 0.0
H_ H_ 0.131727 0.214386 0.635847 0.0
H_ H_ 0.172075 0.129174 0.582263 0.0
H_ H_ 0.226768 0.171039 0.550125 0.0
H_ H_ 0.0686546 0.0159494 0.651812 0.0
H_ H_ 0.123517 0.0396532 0.609438 0.0
H_ H_ 0.264334 0.0690287 0.613184 0.0
H_ H_ 0.115194 0.150411 0.9674 0.0
H_ H_ 0.0721499 0.0976432 0.498559 0.0
H_ H_ 0.0320623 0.172421 0.563498 0.0
H_ H_ 0.0573831 0.222724 0.530449 0.0
H_ H_ 0.311591 0.16115 0.979496 0.0
H_ H_ 0.991977 0.115852 0.945703 0.0
H_ H_ 0.177734 0.184594 0.928943 0.0
H_ H_ 0.162209 0.492833 0.852247 0.0
H_ H_ 0.20582 0.03795 0.884974 0.0
H_ H_ 0.177254 0.117805 0.821279 0.0
H_ H_ 0.141074 0.069394 0.786015 0.0
H_ H_ 0.289547 0.248244 0.888163 0.0
H_ H_ 0.237974 0.228327 0.840994 0.0
H_ H_ 0.0597248 0.170914 0.869948 0.0
H_ H_ 0.241948 0.101267 0.711003 0.0
H_ H_ 0.278366 0.151229 0.740886 0.0
H_ H_ 0.313978 0.0785666 0.81085 0.0
H_ H_ 0.289591 0.0278431 0.775717 0.0
H_ H_ 0.242163 0.400171 0.741498 0.0
H_ H_ -0.0062389999999999946 0.366725 0.805585 0.0
H_ H_ 0.188862 0.441026 0.825102 0.0
H_ H_ 0.0628667 0.304339 0.923948 0.0
H_ H_ 0.0815474 0.33578 0.875528 0.0
H_ H_ 0.228914 0.282961 0.867768 0.0
H_ H_ 0.198031 0.245052 0.910765 0.0
H_ H_ 0.272055 0.476283 0.845976 0.0
H_ H_ 0.217698 0.461084 0.892075 0.0
H_ H_ 0.0634556 0.428175 0.880229 0.0
H_ H_ 0.234943 0.350923 0.538233 0.0
H_ H_ 0.248312 0.393953 1.00105 0.0
H_ H_ 0.30285 0.323241 0.933104 0.0
H_ H_ 0.279938 0.271754 0.962027 0.0
H_ H_ 0.01293 0.329505 0.523948 0.0
H_ H_ 0.470654 0.416863 0.51325 0.0
H_ H_ 0.165838 0.317147 0.565052 0.0
H_ H_ 0.153193 0.00580257 0.659061 0.0
H_ H_ 0.132597 0.472924 0.609245 0.0
H_ H_ 0.167821 0.385676 0.666185 0.0
H_ H_ 0.207491 0.432987 0.705102 0.0
H_ H_ 0.0717659 0.277344 0.592927 0.0
H_ H_ 0.123295 0.295749 0.63766 0.0
H_ H_ 0.292666 0.343292 0.61101 0.0
H_ H_ 0.111141 0.405944 0.78417 0.0
H_ H_ 0.0836278 0.353099 0.752385 0.0
H_ H_ 0.0174322 0.419676 0.686998 0.0
H_ H_ 0.0454788 0.472573 0.719717 0.0
C_ C_ 0.107419 0.0390162 0.728096 0.0
C_ C_ 0.098976 0.0717656 0.71061 0.0
C_ C_ 0.0484764 0.0884384 0.7106 0.0
C_ C_ 0.0398289 0.116906 0.690861 0.0
C_ C_ 0.0815577 0.132663 0.674858 0.0
C_ C_ 0.131936 0.117242 0.675591 0.0
C_ C_ 0.138682 0.0847405 0.689569 0.0
C_ C_ 0.153558 0.124797 0.647895 0.0
C_ C_ 0.0786517 0.148041 0.647638 0.0
C_ C_ 0.167961 0.227708 0.593448 0.0
C_ C_ 0.144789 0.204986 0.613464 0.0
C_ C_ 0.139348 0.168426 0.607512 0.0
C_ C_ 0.163335 0.155945 0.581252 0.0
C_ C_ 0.19526 0.179722 0.563733 0.0
C_ C_ 0.295529 0.0305374 0.662077 0.0
C_ C_ 0.326877 0.0413334 0.634906 0.0
C_ C_ 0.0521456 0.034286 0.636411 0.0
C_ C_ 0.0836895 0.0466371 0.611296 0.0
C_ C_ 0.0557234 0.0604942 0.587097 0.0
C_ C_ 0.337767 0.0716297 0.587544 0.0
C_ C_ 0.3044 0.0608104 0.611841 0.0
C_ C_ 0.0792185 0.0807062 0.565489 0.0
C_ C_ 0.337366 0.10503 0.573599 0.0
C_ C_ 0.0941016 0.156188 0.986956 0.0
C_ C_ 0.0780086 0.124551 0.50765 0.0
C_ C_ 0.0581821 0.131636 0.535356 0.0
C_ C_ 0.0579337 0.167521 0.545211 0.0
C_ C_ 0.0682365 0.195739 0.524036 0.0
C_ C_ 0.22947 0.204153 0.978218 0.0
C_ C_ 0.242883 0.176199 0.956933 0.0
C_ C_ 0.286944 0.155673 0.960714 0.0
C_ C_ 0.303038 0.133017 0.937362 0.0
C_ C_ 0.277832 0.134294 0.90932 0.0
C_ C_ 0.233137 0.15295 0.906355 0.0
C_ C_ 0.213597 0.172313 0.930751 0.0
C_ C_ 0.201894 0.136563 0.885269 0.0
C_ C_ 0.270777 0.10611 0.889146 0.0
C_ C_ 0.175664 0.0193891 0.842759 0.0
C_ C_ 0.194768 0.0447488 0.862828 0.0
C_ C_ 0.197114 0.0807708 0.854399 0.0
C_ C_ 0.182348 0.0905498 0.826099 0.0
C_ C_ 0.157693 0.0637878 0.806844 0.0
C_ C_ 0.0327682 0.210772 0.916881 0.0
C_ C_ 0.00065868 0.203469 0.889971 0.0
C_ C_ 0.302102 0.227901 0.873265 0.0
C_ C_ 0.275603 0.218761 0.846417 0.0
C_ C_ 0.30256 0.199648 0.823912 0.0
C_ C_ 0.995774 0.181283 0.839497 0.0
C_ C_ 0.0230862 0.183586 0.867009 0.0
C_ C_ 0.27747 0.176882 0.802327 0.0
C_ C_ 0.000768173 0.155007 0.818743 0.0
C_ C_ 0.258274 0.0954978 0.731652 0.0
C_ C_ 0.277271 0.124555 0.74959 0.0
C_ C_ 0.294911 0.117798 0.777813 0.0
C_ C_ 0.295948 0.082473 0.788056 0.0
C_ C_ 0.280704 0.0548518 0.769147 0.0
C_ C_ 0.221832 0.460878 0.768514 0.0
C_ C_ 0.21612 0.424027 0.781201 0.0
C_ C_ 0.230989 0.395755 0.764363 0.0
C_ C_ 0.229288 0.361457 0.77727 0.0
C_ C_ 0.222746 0.357967 0.80694 0.0
C_ C_ 0.211704 0.387125 0.82509 0.0
C_ C_ 0.202761 0.419674 0.811932 0.0
C_ C_ 0.181285 0.373363 0.849589 0.0
C_ C_ 0.19714 0.328456 0.820304 0.0
C_ C_ 0.101449 0.300283 0.912694 0.0
C_ C_ 0.112503 0.318851 0.885606 0.0
C_ C_ 0.160005 0.31474 0.870779 0.0
C_ C_ 0.194015 0.290508 0.880647 0.0
C_ C_ 0.175426 0.266194 0.904499 0.0
C_ C_ 0.0304059 0.459475 0.831897 0.0
C_ C_ 1.00143849 0.45436 0.85988 0.0
C_ C_ 0.290409 0.465693 0.866079 0.0
C_ C_ 0.25898 0.457475 0.891366 0.0
C_ C_ 0.284288 0.441013 0.914873 0.0
C_ C_ 0.997276 0.434728 0.911875 0.0
C_ C_ 0.0247378 0.437255 0.883318 0.0
C_ C_ 0.259002 0.414815 0.93401 0.0
C_ C_ 0.0019193 0.406345 0.932764 0.0
C_ C_ 0.246991 0.347275 0.516308 0.0
C_ C_ 0.251639 0.366331 0.990568 0.0
C_ C_ 0.282106 0.362482 0.964963 0.0
C_ C_ 0.290221 0.327866 0.95533 0.0
C_ C_ 0.274597 0.298352 0.971528 0.0
C_ C_ 0.104174 0.290045 0.5188 0.0
C_ C_ 0.0964981 0.324363 0.5373 0.0
C_ C_ 0.0473397 0.340312 0.537434 0.0
C_ C_ 0.0401454 0.369444 0.554813 0.0
C_ C_ 0.0841698 0.385172 0.570653 0.0
C_ C_ 0.131795 0.368892 0.572953 0.0
C_ C_ 0.135565 0.335566 0.559815 0.0
C_ C_ 0.154707 0.380882 0.600115 0.0
C_ C_ 0.0814888 0.404216 0.597188 0.0
C_ C_ 0.1723 0.487704 0.651392 0.0
C_ C_ 0.14554 0.464198 0.631381 0.0
C_ C_ 0.140735 0.428068 0.638022 0.0
C_ C_ 0.168204 0.415952 0.662174 0.0
C_ C_ 0.190252 0.440904 0.684198 0.0
C_ C_ 0.291098 0.28024 0.584664 0.0
C_ C_ 0.320142 0.291933 0.610964 0.0
C_ C_ 0.0532351 0.289223 0.612039 0.0
C_ C_ 0.082455 0.297657 0.63752 0.0
C_ C_ 0.0560854 0.307754 0.663352 0.0
C_ C_ 0.358197 0.338016 0.642409 0.0
C_ C_ 0.323996 0.326774 0.618817 0.0
C_ C_ 0.0804785 0.33122 0.685749 0.0
C_ C_ 0.346984 0.364353 0.662465 0.0
C_ C_ 0.093542 0.410747 0.761412 0.0
C_ C_ 0.0832376 0.380764 0.743232 0.0
C_ C_ 0.059966 0.385211 0.714656 0.0
C_ C_ 0.0412293 0.418407 0.7075 0.0
C_ C_ 0.0551729 0.446811 0.726365 0.0
N_ N_ 0.190485 0.215999 0.567194 0.0
N_ N_ 0.121393 0.14373 0.631011 0.0
N_ N_ 0.0454163 0.102992 0.554714 0.0
N_ N_ 0.0842022 0.188324 0.496052 0.0
N_ N_ 0.152564 0.0288815 0.816421 0.0
N_ N_ 0.224228 0.108258 0.874268 0.0
N_ N_ 0.306469 0.147325 0.799048 0.0
N_ N_ 0.26007 0.0609538 0.742085 0.0
N_ N_ 0.132329 0.273086 0.920547 0.0
N_ N_ 0.174098 0.338639 0.845678 0.0
N_ N_ 0.293761 0.393102 0.94426 0.0
N_ N_ 0.252629 0.30365 -0.0009160000000000279 0.0
N_ N_ 0.192088 0.475638 0.677656 0.0
N_ N_ 0.12364 0.402596 0.614764 0.0
N_ N_ 0.0461471 0.353562 0.695977 0.0
N_ N_ 0.0872444 0.44296 0.750562 0.0
O_ O_ 0.13317 0.0148044 0.715438 0.0
O_ O_ 0.0778849 0.0295602 0.750363 0.0
O_ O_ 0.0342944 0.156233 0.635528 0.0
O_ O_ 0.204157 0.122019 0.640841 0.0
O_ O_ 0.257894 0.0488266 0.669494 0.0
O_ O_ 0.306711 0.00513493 0.678955 0.0
O_ O_ 0.295142 0.116797 0.559759 0.0
O_ O_ 0.11942 0.0716686 0.549557 0.0
O_ O_ 0.206236 0.230321 0.969719 0.0
O_ O_ 0.257932 0.213242 0.49974 0.0
O_ O_ 0.293854 0.0756401 0.89221 0.0
O_ O_ 0.149357 0.136766 0.886265 0.0
O_ O_ 0.0759304 0.195369 0.921124 0.0
O_ O_ 0.0215832 0.236079 0.935456 0.0
O_ O_ 0.0479036 0.146415 0.80832 0.0
O_ O_ 0.225356 0.173052 0.799711 0.0
O_ O_ 0.197594 0.485533 0.779442 0.0
O_ O_ 0.252255 0.468309 0.745573 0.0
O_ O_ 0.179737 0.300689 0.804093 0.0
O_ O_ 0.141595 0.391228 0.858618 0.0
O_ O_ 0.0781971 0.448675 0.828055 0.0
O_ O_ 0.0167949 0.482383 0.813023 0.0
O_ O_ 0.040714 0.385673 0.934036 0.0
O_ O_ 0.208847 0.403436 0.930668 0.0
O_ O_ 0.134062 0.266175 0.528673 0.0
O_ O_ 0.0946289 0.291404 0.991883 0.0
O_ O_ 0.0399663 0.422861 0.604577 0.0
O_ O_ 0.191303 0.364623 0.613927 0.0
O_ O_ 0.247467 0.29387 0.578036 0.0
O_ O_ 0.311254 0.259989 0.565898 0.0
O_ O_ 0.304474 0.383564 0.660662 0.0
O_ O_ 0.127171 0.328252 0.698792 0.0
Cd Cd 0.229775 0.515061 0.21419 0.0
Cd Cd 0.103179 0.740901 0.463644 0.0
Cd Cd 0.10313 0.985722 0.285066 0.0
Cd Cd 0.227665 0.762354 0.0376367 0.0
H_ H_ 0.0182776 0.586023 0.229395 0.0
H_ H_ 0.335994 0.630001 0.191809 0.0
H_ H_ 0.160564 0.559975 0.182028 0.0
H_ H_ 0.157546 0.75183 0.0991756 0.0
H_ H_ 0.107197 0.705181 0.131024 0.0
H_ H_ 0.170285 0.6274 0.0738783 0.0
H_ H_ 0.210536 0.67513 0.0409018 0.0
H_ H_ 0.0686599 0.517846 0.152127 0.0
H_ H_ 0.117884 0.532339 0.10448 0.0
H_ H_ 0.272152 0.57815 0.118598 0.0
H_ H_ 0.117753 0.655875 0.467384 0.0
H_ H_ 0.0868019 0.60068 0.998324 0.0
H_ H_ 0.0221573 0.670253 0.0621744 0.0
H_ H_ 0.0574297 0.723264 0.034131 0.0
H_ H_ 0.306559 0.66576 0.486371 0.0
H_ H_ 1.000142349 0.622012 0.439188 0.0
H_ H_ 0.176028 0.686789 0.426198 0.0
H_ H_ 0.153286 0.979333 0.352217 0.0
H_ H_ 0.184922 0.525712 0.393461 0.0
H_ H_ 0.189526 0.611599 0.329755 0.0
H_ H_ 0.158557 0.567532 0.290098 0.0
H_ H_ 0.266747 0.735404 0.403954 0.0
H_ H_ 0.217578 0.722621 0.355001 0.0
H_ H_ 0.0637257 0.676685 0.367407 0.0
H_ H_ 0.217565 0.597918 0.219189 0.0
H_ H_ 0.252236 0.648923 0.247242 0.0
H_ H_ 0.318135 0.579174 0.311926 0.0
H_ H_ 0.303251 0.53242 0.272826 0.0
H_ H_ 0.321134 0.918266 0.273032 0.0
H_ H_ 0.993598 0.866174 0.304977 0.0
H_ H_ 0.161721 0.930373 0.306254 0.0
H_ H_ 0.155313 0.741285 0.400893 0.0
H_ H_ 0.183774 0.781869 0.359693 0.0
H_ H_ 0.168006 0.872997 0.418433 0.0
H_ H_ 0.127527 0.832074 0.455855 0.0
H_ H_ 0.256775 0.97085 0.340641 0.0
H_ H_ 0.207679 0.951759 0.388127 0.0
H_ H_ 0.0603348 0.925859 0.38041 0.0
H_ H_ 0.205934 0.842709 0.0297368 0.0
H_ H_ 0.252375 0.900471 0.501363 0.0
H_ H_ 0.30159 0.829338 0.435892 0.0
H_ H_ 0.277243 0.778249 0.469062 0.0
H_ H_ 0.0152441 0.826827 0.027805 0.0
H_ H_ 0.332785 0.875017 0.0630579 0.0
H_ H_ 0.159994 0.806324 0.0742263 0.0
H_ H_ 0.181886 0.513459 0.143491 0.0
H_ H_ 0.144211 0.965984 0.108787 0.0
H_ H_ 0.161456 0.886357 0.176171 0.0
H_ H_ 0.187617 0.936746 0.213474 0.0
H_ H_ 0.0687567 0.767464 0.0985042 0.0
H_ H_ 0.115077 0.775547 0.146968 0.0
H_ H_ 0.273112 0.824719 0.131484 0.0
H_ H_ 0.0977375 0.900349 0.285631 0.0
H_ H_ 0.0916544 0.849769 0.249558 0.0
H_ H_ 0.0226511 0.919697 0.185403 0.0
H_ H_ 0.0520073 0.970133 0.218429 0.0
C_ C_ 0.10316 0.54099 0.231996 0.0
C_ C_ 0.0950892 0.57137 0.21164 0.0
C_ C_ 0.0496141 0.591043 0.21285 0.0
C_ C_ 0.0381201 0.616476 0.191543 0.0
C_ C_ 0.0786857 0.626542 0.171154 0.0
C_ C_ 0.126368 0.610195 0.170366 0.0
C_ C_ 0.130968 0.579287 0.187809 0.0
C_ C_ 0.148274 0.615674 0.141808 0.0
C_ C_ 0.0731486 0.640037 0.142968 0.0
C_ C_ 0.156139 0.724491 0.093323 0.0
C_ C_ 0.127561 0.697938 0.11126 0.0
C_ C_ 0.137788 0.663112 0.105087 0.0
C_ C_ 0.171565 0.654406 0.0809963 0.0
C_ C_ 0.191962 0.681279 0.0614043 0.0
C_ C_ 0.302551 0.539666 0.168287 0.0
C_ C_ 0.333024 0.546033 0.140922 0.0
C_ C_ 0.0509587 0.53321 0.136349 0.0
C_ C_ 0.0765278 0.539341 0.109079 0.0
C_ C_ 0.052043 0.557033 0.0861217 0.0
C_ C_ 0.336783 0.569046 0.0896853 0.0
C_ C_ 0.309768 0.56491 0.116552 0.0
C_ C_ 0.0779491 0.577888 0.0643426 0.0
C_ C_ 0.33244 0.597212 0.0689139 0.0
C_ C_ 0.102794 0.659623 0.490143 0.0
C_ C_ 0.0805241 0.628468 0.00646004 0.0
C_ C_ 0.0580742 0.632246 0.034904 0.0
C_ C_ 0.0481917 0.666897 0.0442367 0.0
C_ C_ 0.065338 0.696146 0.026876 0.0
C_ C_ 0.224905 0.708617 0.478078 0.0
C_ C_ 0.237067 0.676964 0.460421 0.0
C_ C_ 0.281181 0.656727 0.46814 0.0
C_ C_ 0.291532 0.627573 0.449031 0.0
C_ C_ 0.269063 0.625745 0.420718 0.0
C_ C_ 0.22632 0.644571 0.413829 0.0
C_ C_ 0.208256 0.669497 0.433961 0.0
C_ C_ 0.197553 0.625875 0.392584 0.0
C_ C_ 0.264237 0.594481 0.403836 0.0
C_ C_ 0.15855 0.513061 0.34868 0.0
C_ C_ 0.183997 0.534925 0.370337 0.0
C_ C_ 0.20006 0.570989 0.362728 0.0
C_ C_ 0.185197 0.583093 0.335168 0.0
C_ C_ 0.161637 0.558789 0.312841 0.0
C_ C_ 0.0341608 0.712792 0.416746 0.0
C_ C_ 0.000901592 0.702647 0.390456 0.0
C_ C_ 0.283466 0.720395 0.384774 0.0
C_ C_ 0.255485 0.713541 0.358333 0.0
C_ C_ 0.278557 0.69311 0.336403 0.0
C_ C_ 0.995125 0.681859 0.339087 0.0
C_ C_ 0.0228117 0.683756 0.366604 0.0
C_ C_ 0.252336 0.669134 0.316789 0.0
C_ C_ 0.000420264 0.655188 0.319192 0.0
C_ C_ 0.238836 0.594383 0.239896 0.0
C_ C_ 0.260342 0.623869 0.256003 0.0
C_ C_ 0.277762 0.618075 0.285349 0.0
C_ C_ 0.295557 0.584039 0.291188 0.0
C_ C_ 0.282041 0.556269 0.271779 0.0
C_ C_ 0.234571 0.961262 0.267914 0.0
C_ C_ 0.239841 0.926881 0.285648 0.0
C_ C_ 0.289087 0.908709 0.284926 0.0
C_ C_ 0.291275 0.875525 0.300844 0.0
C_ C_ 0.247963 0.864726 0.320022 0.0
C_ C_ 0.202501 0.883746 0.321684 0.0
C_ C_ 0.197651 0.914171 0.304616 0.0
C_ C_ 0.179586 0.877132 0.348536 0.0
C_ C_ 0.249974 0.845603 0.347435 0.0
C_ C_ 0.158871 0.769476 0.404679 0.0
C_ C_ 0.176605 0.791925 0.381319 0.0
C_ C_ 0.186488 0.829289 0.386683 0.0
C_ C_ 0.166352 0.843535 0.413281 0.0
C_ C_ 0.146231 0.819985 0.436359 0.0
C_ C_ 0.0318742 0.963974 0.333625 0.0
C_ C_ -0.000344495 0.953747 0.359901 0.0
C_ C_ 0.280055 0.961554 0.361067 0.0
C_ C_ 0.252472 0.954632 0.38845 0.0
C_ C_ 0.279172 0.942152 0.413429 0.0
C_ C_ 0.995936 0.93186 0.410393 0.0
C_ C_ 0.0231618 0.936622 0.38461 0.0
C_ C_ 0.254421 0.920011 0.43436 0.0
C_ C_ 0.999944 0.903238 0.430134 0.0
C_ C_ 0.226551 0.840423 0.0088669 0.0
C_ C_ 0.256287 0.873396 0.49484 0.0
C_ C_ 0.274703 0.867946 0.466697 0.0
C_ C_ 0.28369 0.833432 0.457237 0.0
C_ C_ 0.268977 0.803813 0.475563 0.0
C_ C_ 0.101923 0.787777 0.0238976 0.0
C_ C_ 0.0941773 0.816712 0.0447125 0.0
C_ C_ 0.047386 0.836592 0.042472 0.0
C_ C_ 0.0377018 0.865044 0.0626238 0.0
C_ C_ 0.0670464 0.867224 0.0898118 0.0
C_ C_ 0.113776 0.850757 0.0906866 0.0
C_ C_ 0.127822 0.824118 0.0699138 0.0
C_ C_ 0.146227 0.869433 0.112615 0.0
C_ C_ 0.0730404 0.896142 0.108803 0.0
C_ C_ 0.176964 0.986335 0.151996 0.0
C_ C_ 0.153655 0.959997 0.132157 0.0
C_ C_ 0.143641 0.92406 0.141806 0.0
C_ C_ 0.162625 0.914691 0.169789 0.0
C_ C_ 0.181655 0.941838 0.189321 0.0
C_ C_ 0.301624 0.787319 0.0827557 0.0
C_ C_ 0.333439 0.795592 0.109833 0.0
C_ C_ 0.0501081 0.781161 0.115092 0.0
C_ C_ 0.0749913 0.784548 0.143933 0.0
C_ C_ 0.0495632 0.802306 0.166866 0.0
C_ C_ 0.335383 0.815612 0.161632 0.0
C_ C_ 0.309744 0.812696 0.133984 0.0
C_ C_ 0.0736609 0.823293 0.189118 0.0
C_ C_ 0.329817 0.843026 0.182811 0.0
C_ C_ 0.089641 0.90416 0.262142 0.0
C_ C_ 0.0844501 0.875069 0.242406 0.0
C_ C_ 0.0608139 0.880333 0.21477 0.0
C_ C_ 0.0436634 0.915912 0.207048 0.0
C_ C_ 0.0570699 0.943935 0.226536 0.0
N_ N_ 0.184504 0.715727 0.0680735 0.0
N_ N_ 0.116575 0.636006 0.124721 0.0
N_ N_ 0.0447942 0.601502 0.0538767 0.0
N_ N_ 0.0870019 0.691568 0.999042 0.0
N_ N_ 0.150357 0.524129 0.320169 0.0
N_ N_ 0.219745 0.595778 0.385684 0.0
N_ N_ 0.28816 0.647333 0.305413 0.0
N_ N_ 0.249439 0.560913 0.248398 0.0
N_ N_ 0.145908 0.782953 0.432098 0.0
N_ N_ 0.207427 0.853811 0.364051 0.0
N_ N_ 0.28854 0.898559 0.446876 0.0
N_ N_ 0.245898 0.808257 0.502591 0.0
N_ N_ 0.189605 0.976687 0.180144 0.0
N_ N_ 0.121847 0.897685 0.122513 0.0
N_ N_ 0.043175 0.849959 0.197307 0.0
N_ N_ 0.08052 0.938141 0.253036 0.0
O_ O_ 0.130782 0.516376 0.223023 0.0
O_ O_ 0.0701412 0.533199 0.252305 0.0
O_ O_ 0.0382548 0.663438 0.136806 0.0
O_ O_ 0.196018 0.608007 0.134787 0.0
O_ O_ 0.26467 0.557087 0.175174 0.0
O_ O_ 0.310786 0.512804 0.184492 0.0
O_ O_ 0.288218 0.605899 0.056962 0.0
O_ O_ 0.117549 0.565514 0.0473316 0.0
O_ O_ 0.198877 0.733488 0.466758 0.0
O_ O_ 0.253271 0.714623 0.00545047 0.0
O_ O_ 0.302756 0.573286 0.398282 0.0
O_ O_ 0.144602 0.626534 0.391604 0.0
O_ O_ 0.0761235 0.696048 0.423743 0.0
O_ O_ 0.021378 0.737441 0.43336 0.0
O_ O_ 0.0398918 0.633264 0.319809 0.0
O_ O_ 0.208149 0.676249 0.302037 0.0
O_ O_ 0.203157 0.984031 0.277335 0.0
O_ O_ 0.262987 0.969117 0.244654 0.0
O_ O_ 0.294999 0.836712 0.358467 0.0
O_ O_ 0.130137 0.881576 0.353277 0.0
O_ O_ 0.0712664 0.947371 0.325212 0.0
O_ O_ 0.0260403 0.994189 0.320227 0.0
O_ O_ 0.0471068 0.894776 0.440765 0.0
O_ O_ 0.215074 0.930888 0.450126 0.0
O_ O_ 0.133644 0.762723 0.0311295 0.0
O_ O_ 0.0725188 0.785447 0.497603 0.0
O_ O_ 0.0326525 0.914835 0.118427 0.0
O_ O_ 0.198384 0.868686 0.115385 0.0
O_ O_ 0.260391 0.802455 0.0790216 0.0
O_ O_ 0.309358 0.760979 0.0658964 0.0
O_ O_ 0.293579 0.865798 0.17943 0.0
O_ O_ 0.125235 0.826229 0.192686 0.0
Cd Cd 0.228392 0.51622 0.712362 0.0
Cd Cd 0.100707 0.738772 0.964939 0.0
Cd Cd 0.105078 0.987161 0.78508 0.0
Cd Cd 0.227393 0.762286 0.537456 0.0
H_ H_ 0.0127496 0.581181 0.725165 0.0
H_ H_ 0.332113 0.624518 0.686602 0.0
H_ H_ 0.165598 0.561299 0.683367 0.0
H_ H_ 0.202405 0.763833 0.610723 0.0
H_ H_ 0.168155 0.724751 0.648383 0.0
H_ H_ 0.142988 0.639651 0.58139 0.0
H_ H_ 0.176829 0.680984 0.543489 0.0
H_ H_ 0.069423 0.519099 0.652576 0.0
H_ H_ 0.120259 0.538467 0.609294 0.0
H_ H_ 0.270556 0.573632 0.619613 0.0
H_ H_ 0.107037 0.655664 0.966372 0.0
H_ H_ 0.108906 0.604335 0.502119 0.0
H_ H_ 0.0185058 0.667859 0.562565 0.0
H_ H_ 0.0422452 0.720074 0.529861 0.0
H_ H_ 0.312262 0.66328 0.982493 0.0
H_ H_ 1.000593154 0.623532 0.937618 0.0
H_ H_ 0.169669 0.685386 0.931095 0.0
H_ H_ 0.171128 0.991718 0.848683 0.0
H_ H_ 0.226066 0.535668 0.87634 0.0
H_ H_ 0.152308 0.621494 0.8291 0.0
H_ H_ 0.118068 0.573604 0.794394 0.0
H_ H_ 0.267707 0.73187 0.903945 0.0
H_ H_ 0.211965 0.712911 0.860532 0.0
H_ H_ 0.0673364 0.682034 0.865668 0.0
H_ H_ 0.215202 0.601032 0.715959 0.0
H_ H_ 0.243967 0.653635 0.747656 0.0
H_ H_ 0.302885 0.583838 0.810355 0.0
H_ H_ 0.276552 0.531959 0.77859 0.0
H_ H_ 0.311692 0.915462 0.772389 0.0
H_ H_ 0.99621709 0.867723 0.806908 0.0
H_ H_ 0.165219 0.934198 0.820517 0.0
H_ H_ 0.186902 0.746506 0.909579 0.0
H_ H_ 0.23194 0.789451 0.877776 0.0
H_ H_ 0.164062 0.873363 0.928258 0.0
H_ H_ 0.119237 0.825675 0.960012 0.0
H_ H_ 0.267532 0.983628 0.847286 0.0
H_ H_ 0.211077 0.96213 0.89205 0.0
H_ H_ 0.0669063 0.928248 0.88262 0.0
H_ H_ 0.223988 0.846447 0.535327 0.0
H_ H_ 0.230888 0.897217 0.999858 0.0
H_ H_ 0.317882 0.829123 0.940342 0.0
H_ H_ 0.293165 0.780932 0.974645 0.0
H_ H_ 0.0129396 0.829373 0.522789 0.0
H_ H_ 0.334039 0.877512 0.560859 0.0
H_ H_ 0.162929 0.814076 0.568886 0.0
H_ H_ 0.181693 0.516231 0.646067 0.0
H_ H_ 0.11384 0.964895 0.619903 0.0
H_ H_ 0.172635 0.877348 0.670789 0.0
H_ H_ 0.222857 0.920489 0.701218 0.0
H_ H_ 0.0707101 0.771697 0.594799 0.0
H_ H_ 0.121166 0.780736 0.642472 0.0
H_ H_ 0.270997 0.826032 0.630153 0.0
H_ H_ 0.100872 0.89973 0.786396 0.0
H_ H_ 0.0866619 0.848071 0.752704 0.0
H_ H_ 0.0301973 0.918017 0.686785 0.0
H_ H_ 0.0647125 0.969267 0.716406 0.0
C_ C_ 0.101233 0.538079 0.728141 0.0
C_ C_ 0.0909236 0.567222 0.706823 0.0
C_ C_ 0.0431771 0.586088 0.707507 0.0
C_ C_ 0.0362841 0.613819 0.687377 0.0
C_ C_ 0.0729126 0.61901 0.664002 0.0
C_ C_ 0.116547 0.59846 0.660796 0.0
C_ C_ 0.12739 0.573683 0.682783 0.0
C_ C_ 0.155118 0.621247 0.64747 0.0
C_ C_ 0.0872297 0.651844 0.651299 0.0
C_ C_ 0.188614 0.735895 0.603716 0.0
C_ C_ 0.177966 0.711895 0.626746 0.0
C_ C_ 0.159311 0.676171 0.619898 0.0
C_ C_ 0.155126 0.666944 0.589345 0.0
C_ C_ 0.177417 0.690635 0.567281 0.0
C_ C_ 0.303691 0.53842 0.668696 0.0
C_ C_ 0.332481 0.544591 0.63918 0.0
C_ C_ 0.0496383 0.529718 0.633997 0.0
C_ C_ 0.0773733 0.537716 0.607925 0.0
C_ C_ 0.0517929 0.553138 0.584167 0.0
C_ C_ 0.33713 0.568877 0.589555 0.0
C_ C_ 0.307021 0.562094 0.615673 0.0
C_ C_ 0.0758537 0.572794 0.560361 0.0
C_ C_ 0.333524 0.597557 0.57193 0.0
C_ C_ 0.0934524 0.658412 0.988932 0.0
C_ C_ 0.0951213 0.630126 0.509104 0.0
C_ C_ 0.0606291 0.630247 0.53443 0.0
C_ C_ 0.0423145 0.664427 0.542479 0.0
C_ C_ 0.0570589 0.694601 0.523466 0.0
C_ C_ 0.229915 0.710804 0.980119 0.0
C_ C_ 0.237291 0.677312 0.96118 0.0
C_ C_ 0.284207 0.658788 0.963489 0.0
C_ C_ 0.29334 0.630593 0.941563 0.0
C_ C_ 0.251509 0.618104 0.92328 0.0
C_ C_ 0.205454 0.635358 0.922948 0.0
C_ C_ 0.202839 0.668973 0.937356 0.0
C_ C_ 0.18464 0.62826 0.894718 0.0
C_ C_ 0.257519 0.600495 0.896278 0.0
C_ C_ 0.164683 0.520372 0.845089 0.0
C_ C_ 0.199439 0.544495 0.860431 0.0
C_ C_ 0.195913 0.582386 0.855544 0.0
C_ C_ 0.165357 0.592889 0.831445 0.0
C_ C_ 0.138675 0.565909 0.81364 0.0
C_ C_ 0.0369041 0.717396 0.914561 0.0
C_ C_ 0.00440029 0.708503 0.887731 0.0
C_ C_ 0.285126 0.718846 0.884765 0.0
C_ C_ 0.253376 0.709392 0.86034 0.0
C_ C_ 0.276812 0.692739 0.837119 0.0
C_ C_ 0.996561 0.683146 0.838474 0.0
C_ C_ 0.0279262 0.691825 0.86378 0.0
C_ C_ 0.25215 0.670911 0.816249 0.0
C_ C_ 0.00123825 0.654157 0.819129 0.0
C_ C_ 0.228707 0.597337 0.738497 0.0
C_ C_ 0.246382 0.626288 0.756295 0.0
C_ C_ 0.270627 0.619792 0.783865 0.0
C_ C_ 0.277511 0.586239 0.792387 0.0
C_ C_ 0.263554 0.557579 0.772649 0.0
C_ C_ 0.231409 0.960029 0.774601 0.0
C_ C_ 0.236811 0.927955 0.792658 0.0
C_ C_ 0.281985 0.908267 0.788779 0.0
C_ C_ 0.291534 0.879431 0.80794 0.0
C_ C_ 0.252248 0.869517 0.829466 0.0
C_ C_ 0.206901 0.887587 0.832756 0.0
C_ C_ 0.198028 0.917181 0.814885 0.0
C_ C_ 0.188002 0.881086 0.860912 0.0
C_ C_ 0.258578 0.852966 0.856092 0.0
C_ C_ 0.180535 0.773919 0.912873 0.0
C_ C_ 0.207826 0.798795 0.894437 0.0
C_ C_ 0.200715 0.834472 0.898353 0.0
C_ C_ 0.169055 0.845078 0.921919 0.0
C_ C_ 0.144781 0.81926 0.942263 0.0
C_ C_ 0.0330037 0.961886 0.831002 0.0
C_ C_ 1.00283118 0.954884 0.86008 0.0
C_ C_ 0.282095 0.964074 0.862894 0.0
C_ C_ 0.253189 0.955826 0.889256 0.0
C_ C_ 0.279618 0.94205 0.913861 0.0
C_ C_ 0.998067 0.933242 0.9121 0.0
C_ C_ 0.0269397 0.935745 0.884177 0.0
C_ C_ 0.255837 0.92145 0.93585 0.0
C_ C_ 0.00240341 0.905704 0.932962 0.0
C_ C_ 0.239965 0.842294 0.512688 0.0
C_ C_ 0.242769 0.871469 0.991992 0.0
C_ C_ 0.27821 0.868661 0.96721 0.0
C_ C_ 0.291015 0.833816 0.959753 0.0
C_ C_ 0.272354 0.804618 0.977656 0.0
C_ C_ 0.101328 0.789486 0.520327 0.0
C_ C_ 0.0953043 0.820249 0.539738 0.0
C_ C_ 0.0461028 0.838224 0.538259 0.0
C_ C_ 0.0381377 0.866498 0.558595 0.0
C_ C_ 0.0786958 0.876677 0.578569 0.0
C_ C_ 0.128413 0.863729 0.57588 0.0
C_ C_ 0.135685 0.832229 0.559412 0.0
C_ C_ 0.154313 0.874144 0.601059 0.0
C_ C_ 0.076497 0.896181 0.604884 0.0
C_ C_ 0.163403 0.979189 0.657323 0.0
C_ C_ 0.136032 0.955463 0.638647 0.0
C_ C_ 0.145063 0.917629 0.640247 0.0
C_ C_ 0.173377 0.906398 0.663724 0.0
C_ C_ 0.195973 0.930537 0.683852 0.0
C_ C_ 0.304997 0.786555 0.582014 0.0
C_ C_ 0.331772 0.793258 0.610293 0.0
C_ C_ 0.0523161 0.784627 0.612299 0.0
C_ C_ 0.0804924 0.790676 0.639948 0.0
C_ C_ 0.0540855 0.806727 0.663638 0.0
C_ C_ 0.336479 0.817412 0.661558 0.0
C_ C_ 0.308465 0.813414 0.633866 0.0
C_ C_ 0.0770238 0.826791 0.686577 0.0
C_ C_ 0.333232 0.846402 0.679817 0.0
C_ C_ 0.0880292 0.904169 0.763842 0.0
C_ C_ 0.0767295 0.873689 0.744626 0.0
C_ C_ 0.0569111 0.878461 0.716626 0.0
C_ C_ 0.0516913 0.914234 0.70746 0.0
C_ C_ 0.0679904 0.94283 0.725557 0.0
N_ N_ 0.192156 0.724605 0.574558 0.0
N_ N_ 0.13819 0.653559 0.642651 0.0
N_ N_ 0.0427482 0.598278 0.551282 0.0
N_ N_ 0.0876839 0.691957 0.49861 0.0
N_ N_ 0.13734 0.531159 0.821775 0.0
N_ N_ 0.216847 0.608142 0.877983 0.0
N_ N_ 0.288359 0.650235 0.803204 0.0
N_ N_ 0.240163 0.562995 0.74581 0.0
N_ N_ 0.153744 0.783218 0.937825 0.0
N_ N_ 0.220162 0.859858 0.87564 0.0
N_ N_ 0.288988 0.897613 0.945775 0.0
N_ N_ 0.243259 0.807621 0.00221477 0.0
N_ N_ 0.196372 0.966268 0.679407 0.0
N_ N_ 0.122849 0.892756 0.619148 0.0
N_ N_ 0.0434547 0.849026 0.697457 0.0
N_ N_ 0.0917121 0.937814 0.752056 0.0
O_ O_ 0.133648 0.514619 0.720995 0.0
O_ O_ 0.0770436 0.537082 0.75286 0.0
O_ O_ 0.0648523 0.680526 0.659552 0.0
O_ O_ 0.20541 0.616172 0.649431 0.0
O_ O_ 0.265968 0.557892 0.674606 0.0
O_ O_ 0.307765 0.510758 0.683517 0.0
O_ O_ 0.287903 0.610472 0.566382 0.0
O_ O_ 0.128302 0.578061 0.556022 0.0
O_ O_ 0.202697 0.734928 0.97054 0.0
O_ O_ 0.247622 0.713813 0.503413 0.0
O_ O_ 0.304958 0.593616 0.88571 0.0
O_ O_ 0.135321 0.632233 0.887774 0.0
O_ O_ 0.0758993 0.700441 0.922067 0.0
O_ O_ 0.0246013 0.741721 0.933635 0.0
O_ O_ 0.047564 0.644363 0.808199 0.0
O_ O_ 0.208756 0.679632 0.801472 0.0
O_ O_ 0.202598 0.983903 0.783166 0.0
O_ O_ 0.259797 0.966206 0.75 0.0
O_ O_ 0.304289 0.844508 0.864887 0.0
O_ O_ 0.136955 0.879474 0.866752 0.0
O_ O_ 0.0757957 0.948245 0.82812 0.0
O_ O_ 0.0223885 0.985625 0.812431 0.0
O_ O_ 0.0384771 0.883405 0.931177 0.0
O_ O_ 0.217952 0.933285 0.953577 0.0
O_ O_ 0.129677 0.763702 0.528301 0.0
O_ O_ 0.0752611 0.784327 -0.00019100000000005224 0.0
O_ O_ 0.0341132 0.900271 0.620186 0.0
O_ O_ 0.207807 0.880846 0.602014 0.0
O_ O_ 0.268872 0.805538 0.573976 0.0
O_ O_ 0.309894 0.757461 0.568123 0.0
O_ O_ 0.287948 0.856601 0.68973 0.0
O_ O_ 0.115977 0.816953 0.702155 0.0
Cd Cd 0.567581 0.0122445 0.21452 0.0
Cd Cd 0.43789 0.238402 0.462284 0.0
Cd Cd 0.435319 0.485852 0.286771 0.0
Cd Cd 0.564537 0.260454 0.0368862 0.0
H_ H_ 0.374154 0.0962334 0.237343 0.0
H_ H_ 0.666045 0.125152 0.187337 0.0
H_ H_ 0.489148 0.062607 0.172294 0.0
H_ H_ 0.525617 0.256698 0.108346 0.0
H_ H_ 0.491701 0.210723 0.143779 0.0
H_ H_ 0.473799 0.138631 0.0701297 0.0
H_ H_ 0.525698 0.181094 0.0392483 0.0
H_ H_ 0.399925 0.0128056 0.142267 0.0
H_ H_ 0.433635 0.02053 0.0900499 0.0
H_ H_ 0.605511 0.0792843 0.119954 0.0
H_ H_ 0.456688 0.150888 0.473198 0.0
H_ H_ 0.419442 0.101965 0.990151 0.0
H_ H_ 0.363701 0.169718 0.0593939 0.0
H_ H_ 0.380991 0.220269 0.028327 0.0
H_ H_ 0.643196 0.162627 0.481069 0.0
H_ H_ 0.311131 0.102719 0.457191 0.0
H_ H_ 0.5042 0.184533 0.427971 0.0
H_ H_ 0.494002 0.491858 0.348652 0.0
H_ H_ 0.540941 0.0363069 0.380694 0.0
H_ H_ 0.496518 0.123815 0.323842 0.0
H_ H_ 0.472135 0.0788129 0.286498 0.0
H_ H_ 0.606778 0.243171 0.398092 0.0
H_ H_ 0.544947 0.217362 0.356935 0.0
H_ H_ 0.394589 0.179062 0.365038 0.0
H_ H_ 0.549265 0.0945797 0.220726 0.0
H_ H_ 0.578172 0.147987 0.250299 0.0
H_ H_ 0.634079 0.0795159 0.316776 0.0
H_ H_ 0.623641 0.0274251 0.281531 0.0
H_ H_ 0.649849 0.419232 0.273902 0.0
H_ H_ 0.299843 0.353611 0.289893 0.0
H_ H_ 0.49413 0.424526 0.313671 0.0
H_ H_ 0.497945 0.236011 0.399059 0.0
H_ H_ 0.538366 0.275858 0.361696 0.0
H_ H_ 0.493454 0.36583 0.412536 0.0
H_ H_ 0.454726 0.323414 0.450775 0.0
H_ H_ 0.597274 0.481795 0.345622 0.0
H_ H_ 0.547187 0.467709 0.393886 0.0
H_ H_ 0.405789 0.438753 0.392785 0.0
H_ H_ 0.559647 0.346244 0.0337165 0.0
H_ H_ 0.571081 0.39688 0.498995 0.0
H_ H_ 0.636535 0.328117 0.433493 0.0
H_ H_ 0.617127 0.276756 0.468102 0.0
H_ H_ 0.351983 0.326042 0.0232543 0.0
H_ H_ 0.665749 0.373702 0.0643352 0.0
H_ H_ 0.501246 0.315182 0.069092 0.0
H_ H_ 0.508147 0.00695531 0.151115 0.0
H_ H_ 0.457327 0.465531 0.116326 0.0
H_ H_ 0.492706 0.38009 0.174749 0.0
H_ H_ 0.540182 0.423877 0.208399 0.0
H_ H_ 0.404783 0.261332 0.101057 0.0
H_ H_ 0.442037 0.271929 0.15283 0.0
H_ H_ 0.608189 0.331805 0.129282 0.0
H_ H_ 0.433721 0.398425 0.282318 0.0
H_ H_ 0.408454 0.347007 0.250716 0.0
H_ H_ 0.362955 0.42204 0.18449 0.0
H_ H_ 0.389442 0.471578 0.217773 0.0
C_ C_ 0.439179 0.0408422 0.225571 0.0
C_ C_ 0.424625 0.0715684 0.205092 0.0
C_ C_ 0.389959 0.098065 0.215119 0.0
C_ C_ 0.380689 0.126811 0.196433 0.0
C_ C_ 0.396332 0.125019 0.166694 0.0
C_ C_ 0.435293 0.10022 0.157923 0.0
C_ C_ 0.454222 0.0779049 0.178722 0.0
C_ C_ 0.462578 0.115057 0.134237 0.0
C_ C_ 0.405567 0.153076 0.147227 0.0
C_ C_ 0.511012 0.232063 0.0995272 0.0
C_ C_ 0.491174 0.206167 0.119937 0.0
C_ C_ 0.474808 0.171918 0.109722 0.0
C_ C_ 0.48724 0.16301 0.0802658 0.0
C_ C_ 0.516735 0.188452 0.0621092 0.0
C_ C_ 0.636674 0.0393913 0.168113 0.0
C_ C_ 0.663973 0.0450174 0.139847 0.0
C_ C_ 0.376937 0.0264518 0.125345 0.0
C_ C_ 0.397461 0.0302633 0.0953937 0.0
C_ C_ 0.372147 0.0530319 0.0755707 0.0
C_ C_ 0.670209 0.069129 0.0904594 0.0
C_ C_ 0.641542 0.0648853 0.116857 0.0
C_ C_ 0.397556 0.0706819 0.0510693 0.0
C_ C_ 0.667532 0.0978722 0.0706409 0.0
C_ C_ 0.435719 0.158741 0.493135 0.0
C_ C_ 0.411318 0.127166 -0.0011719999999999509 0.0
C_ C_ 0.389767 0.13041 0.0279133 0.0
C_ C_ 0.376748 0.163925 0.0364274 0.0
C_ C_ 0.387819 0.193205 0.0189855 0.0
C_ C_ 0.560003 0.208355 0.47703 0.0
C_ C_ 0.570847 0.178628 0.458595 0.0
C_ C_ 0.614415 0.157573 0.463234 0.0
C_ C_ 0.626551 0.131581 0.440978 0.0
C_ C_ 0.585787 0.119689 0.420792 0.0
C_ C_ 0.543483 0.139156 0.416727 0.0
C_ C_ 0.534376 0.167845 0.434712 0.0
C_ C_ 0.522475 0.133138 0.388002 0.0
C_ C_ 0.588774 0.100567 0.394369 0.0
C_ C_ 0.499204 0.022215 0.340539 0.0
C_ C_ 0.526933 0.0459099 0.359455 0.0
C_ C_ 0.528044 0.0831932 0.353294 0.0
C_ C_ 0.499533 0.094511 0.328166 0.0
C_ C_ 0.478042 0.0695967 0.307711 0.0
C_ C_ 0.366792 0.216762 0.413771 0.0
C_ C_ 0.331094 0.202966 0.388955 0.0
C_ C_ 0.61945 0.222325 0.383943 0.0
C_ C_ 0.587571 0.211866 0.357862 0.0
C_ C_ 0.612931 0.192663 0.335612 0.0
C_ C_ 0.318803 0.165469 0.345642 0.0
C_ C_ 0.352754 0.181148 0.367308 0.0
C_ C_ 0.587697 0.169595 0.314951 0.0
C_ C_ 0.331907 0.151985 0.318354 0.0
C_ C_ 0.572845 0.0910783 0.23912 0.0
C_ C_ 0.586386 0.121782 0.257631 0.0
C_ C_ 0.607735 0.117164 0.286034 0.0
C_ C_ 0.619849 0.0838258 0.293879 0.0
C_ C_ 0.611218 0.0547476 0.274924 0.0
C_ C_ 0.559902 0.458355 0.270216 0.0
C_ C_ 0.569908 0.427751 0.290232 0.0
C_ C_ 0.619653 0.41066 0.289214 0.0
C_ C_ 0.626436 0.37956 0.305885 0.0
C_ C_ 0.584176 0.363929 0.321353 0.0
C_ C_ 0.534712 0.379214 0.322372 0.0
C_ C_ 0.528931 0.412843 0.309097 0.0
C_ C_ 0.511363 0.368902 0.348172 0.0
C_ C_ 0.586807 0.346172 0.348374 0.0
C_ C_ 0.501215 0.264184 0.404326 0.0
C_ C_ 0.522943 0.287248 0.382463 0.0
C_ C_ 0.52656 0.324347 0.387686 0.0
C_ C_ 0.50091 0.337735 0.411989 0.0
C_ C_ 0.48111 0.314436 0.434653 0.0
C_ C_ 0.371137 0.465918 0.339089 0.0
C_ C_ 0.340475 0.458573 0.367128 0.0
C_ C_ 0.6159 0.46631 0.36363 0.0
C_ C_ 0.585944 0.456978 0.390661 0.0
C_ C_ 0.612544 0.443298 0.414359 0.0
C_ C_ 0.335737 0.438583 0.418649 0.0
C_ C_ 0.365117 0.444254 0.392694 0.0
C_ C_ 0.587735 0.421191 0.436987 0.0
C_ C_ 0.344283 0.413501 0.441644 0.0
C_ C_ 0.56982 0.341009 0.0101816 0.0
C_ C_ 0.583674 0.370985 0.491827 0.0
C_ C_ 0.608126 0.367008 0.464288 0.0
C_ C_ 0.61765 0.332406 0.454287 0.0
C_ C_ 0.608389 0.303067 0.475011 0.0
C_ C_ 0.439161 0.287213 0.0221766 0.0
C_ C_ 0.429302 0.317308 0.0428283 0.0
C_ C_ 0.380576 0.336109 0.0392585 0.0
C_ C_ 0.371372 0.364386 0.0577628 0.0
C_ C_ 0.41225 0.376722 0.0773691 0.0
C_ C_ 0.459729 0.360823 0.0797509 0.0
C_ C_ 0.465166 0.328109 0.0658922 0.0
C_ C_ 0.484556 0.37328 0.105611 0.0
C_ C_ 0.408 0.398906 0.102155 0.0
C_ C_ 0.494153 0.480013 0.157903 0.0
C_ C_ 0.470702 0.456388 0.137661 0.0
C_ C_ 0.469393 0.419308 0.143728 0.0
C_ C_ 0.493402 0.406446 0.169751 0.0
C_ C_ 0.516811 0.432104 0.189894 0.0
C_ C_ 0.634986 0.289543 0.0819775 0.0
C_ C_ 0.669415 0.300736 0.108427 0.0
C_ C_ 0.382022 0.274712 0.117109 0.0
C_ C_ 0.404152 0.281422 0.146243 0.0
C_ C_ 0.377303 0.302863 0.165734 0.0
C_ C_ 0.669626 0.319838 0.159896 0.0
C_ C_ 0.646896 0.319745 0.132395 0.0
C_ C_ 0.398773 0.322436 0.189939 0.0
C_ C_ 0.668752 0.349424 0.178972 0.0
C_ C_ 0.421026 0.403077 0.260777 0.0
C_ C_ 0.404184 0.374049 0.243116 0.0
C_ C_ 0.386546 0.381371 0.214328 0.0
C_ C_ 0.379522 0.416398 0.205986 0.0
C_ C_ 0.394348 0.444602 0.22524 0.0
N_ N_ 0.52099 0.222562 0.0704499 0.0
N_ N_ 0.445288 0.146841 0.127606 0.0
N_ N_ 0.369602 0.0990218 0.0436062 0.0
N_ N_ 0.416142 0.190708 0.993919 0.0
N_ N_ 0.47654 0.0338636 0.314758 0.0
N_ N_ 0.551372 0.108946 0.374706 0.0
N_ N_ 0.622865 0.148303 0.303369 0.0
N_ N_ 0.583404 0.0583122 0.248552 0.0
N_ N_ 0.483392 0.277533 0.4306 0.0
N_ N_ 0.542443 0.348071 0.364083 0.0
N_ N_ 0.621115 0.39829 0.446731 0.0
N_ N_ 0.582188 0.308766 0.501019 0.0
N_ N_ 0.514699 0.467573 0.18465 0.0
N_ N_ 0.450705 0.395113 0.120696 0.0
N_ N_ 0.369145 0.350783 0.195235 0.0
N_ N_ 0.416231 0.437392 0.251545 0.0
O_ O_ 0.46736 0.0171634 0.21759 0.0
O_ O_ 0.41486 0.0371261 0.249258 0.0
O_ O_ 0.389116 0.185356 0.151715 0.0
O_ O_ 0.507708 0.103988 0.126204 0.0
O_ O_ 0.591697 0.0496553 0.172976 0.0
O_ O_ 0.650706 0.0136864 0.18509 0.0
O_ O_ 0.620088 0.105531 0.0606612 0.0
O_ O_ 0.447805 0.0681502 0.0449144 0.0
O_ O_ 0.535244 0.234295 0.466432 0.0
O_ O_ 0.590156 0.214125 0.00354677 0.0
O_ O_ 0.632683 0.0860779 0.385251 0.0
O_ O_ 0.471813 0.136786 0.38169 0.0
O_ O_ 0.412027 0.205284 0.416606 0.0
O_ O_ 0.353473 0.239278 0.432818 0.0
O_ O_ 0.379938 0.155934 0.308768 0.0
O_ O_ 0.544032 0.177786 0.29979 0.0
O_ O_ 0.532436 0.483029 0.279082 0.0
O_ O_ 0.586893 0.463387 0.246751 0.0
O_ O_ 0.631604 0.335989 0.360572 0.0
O_ O_ 0.459956 0.371456 0.352141 0.0
O_ O_ 0.414269 0.451718 0.335101 0.0
O_ O_ 0.358275 0.489464 0.319394 0.0
O_ O_ 0.382595 0.392288 0.441087 0.0
O_ O_ 0.535668 0.415489 0.438397 0.0
O_ O_ 0.466171 0.261001 0.0305941 0.0
O_ O_ 0.417946 0.287096 0.49395 0.0
O_ O_ 0.36105 0.406008 0.11291 0.0
O_ O_ 0.535729 0.377486 0.107949 0.0
O_ O_ 0.589611 0.298537 0.0789635 0.0
O_ O_ 0.649349 0.267709 0.0621044 0.0
O_ O_ 0.622898 0.361134 0.187381 0.0
O_ O_ 0.450284 0.323663 0.196493 0.0
Cd Cd 0.564137 0.0112584 0.713854 0.0
Cd Cd 0.440637 0.239318 0.961751 0.0
Cd Cd 0.438565 0.486406 0.784745 0.0
Cd Cd 0.562676 0.263393 0.534369 0.0
H_ H_ 0.415591 0.105921 0.752389 0.0
H_ H_ 0.674812 0.134605 0.695863 0.0
H_ H_ 0.478462 0.0605969 0.673046 0.0
H_ H_ 0.45697 0.243321 0.577962 0.0
H_ H_ 0.434615 0.206824 0.620782 0.0
H_ H_ 0.584022 0.16412 0.618634 0.0
H_ H_ 0.6093 0.199795 0.573391 0.0
H_ H_ 0.396047 0.0154199 0.649611 0.0
H_ H_ 0.45663 0.0402547 0.607242 0.0
H_ H_ 0.601976 0.0725338 0.618346 0.0
H_ H_ 0.435126 0.156804 0.959337 0.0
H_ H_ 0.433081 0.104108 0.512544 0.0
H_ H_ 0.356713 0.185905 0.563233 0.0
H_ H_ 0.379199 0.228039 0.524636 0.0
H_ H_ 0.655424 0.172835 0.975317 0.0
H_ H_ 0.339615 0.119771 0.939445 0.0
H_ H_ 0.503215 0.185011 0.933515 0.0
H_ H_ 0.500997 0.490389 0.846123 0.0
H_ H_ 0.541353 0.0350745 0.883561 0.0
H_ H_ 0.506807 0.121827 0.822533 0.0
H_ H_ 0.467418 0.0756329 0.787578 0.0
H_ H_ 0.596658 0.233183 0.902133 0.0
H_ H_ 0.546054 0.216612 0.857207 0.0
H_ H_ 0.401627 0.169573 0.86781 0.0
H_ H_ 0.550674 0.094708 0.714844 0.0
H_ H_ 0.567607 0.147026 0.747974 0.0
H_ H_ 0.650913 0.0798542 0.810595 0.0
H_ H_ 0.638437 0.0299991 0.774389 0.0
H_ H_ 0.651634 0.424068 0.777144 0.0
H_ H_ 0.232409 0.337282 0.763751 0.0
H_ H_ 0.481434 0.413827 0.796268 0.0
H_ H_ 0.505408 0.240811 0.901725 0.0
H_ H_ 0.547813 0.285154 0.864531 0.0
H_ H_ 0.502806 0.369898 0.921313 0.0
H_ H_ 0.45512 0.325834 0.954505 0.0
H_ H_ 0.593414 0.476709 0.84396 0.0
H_ H_ 0.54694 0.466616 0.892684 0.0
H_ H_ 0.409475 0.438467 0.889312 0.0
H_ H_ 0.549908 0.343688 0.531172 0.0
H_ H_ 0.558424 0.394803 0.9987811 0.0
H_ H_ 0.646789 0.329092 0.938143 0.0
H_ H_ 0.623095 0.279732 0.970542 0.0
H_ H_ 0.448079 0.360114 0.49079 0.0
H_ H_ 0.674708 0.384828 0.554036 0.0
H_ H_ 0.440448 0.309074 0.577199 0.0
H_ H_ 0.498378 0.00861117 0.651934 0.0
H_ H_ 0.462241 0.466772 0.612933 0.0
H_ H_ 0.57203 0.392845 0.647122 0.0
H_ H_ 0.585002 0.432609 0.692977 0.0
H_ H_ 0.356156 0.239765 0.614997 0.0
H_ H_ 0.407114 0.259392 0.662835 0.0
H_ H_ 0.605637 0.325439 0.629556 0.0
H_ H_ 0.358324 0.414392 0.780213 0.0
H_ H_ 0.330213 0.365584 0.741844 0.0
H_ H_ 0.466208 0.399041 0.691386 0.0
H_ H_ 0.487948 0.449443 0.726018 0.0
C_ C_ 0.436207 0.0408352 0.727965 0.0
C_ C_ 0.433841 0.0758639 0.712104 0.0
C_ C_ 0.423139 0.106576 0.728957 0.0
C_ C_ 0.428114 0.140613 0.714649 0.0
C_ C_ 0.43683 0.142366 0.683249 0.0
C_ C_ 0.457044 0.113011 0.670034 0.0
C_ C_ 0.455327 0.0799525 0.682864 0.0
C_ C_ 0.493881 0.126558 0.64885 0.0
C_ C_ 0.459851 0.171742 0.669816 0.0
C_ C_ 0.485062 0.225744 0.585057 0.0
C_ C_ 0.471859 0.205081 0.610878 0.0
C_ C_ 0.507639 0.181186 0.620962 0.0
C_ C_ 0.554229 0.176268 0.605414 0.0
C_ C_ 0.569374 0.19954 0.580751 0.0
C_ C_ 0.635939 0.0376198 0.666538 0.0
C_ C_ 0.666165 0.045189 0.639496 0.0
C_ C_ 0.380913 0.0325259 0.632421 0.0
C_ C_ 0.412558 0.0424167 0.607613 0.0
C_ C_ 0.391128 0.0629083 0.586122 0.0
C_ C_ 0.66927 0.0664988 0.588239 0.0
C_ C_ 0.643097 0.0650024 0.61576 0.0
C_ C_ 0.420391 0.09317 0.573126 0.0
C_ C_ 0.664043 0.0939607 0.567101 0.0
C_ C_ 0.425552 0.157989 0.982012 0.0
C_ C_ 0.426455 0.133797 0.515576 0.0
C_ C_ 0.396579 0.142502 0.540641 0.0
C_ C_ 0.379915 0.176829 0.544163 0.0
C_ C_ 0.392359 0.201859 0.521765 0.0
C_ C_ 0.567721 0.211299 0.97757 0.0
C_ C_ 0.575535 0.180381 0.958398 0.0
C_ C_ 0.621532 0.160512 0.961371 0.0
C_ C_ 0.62807 0.130742 0.94331 0.0
C_ C_ 0.584672 0.118658 0.92491 0.0
C_ C_ 0.537858 0.136305 0.924123 0.0
C_ C_ 0.535903 0.169523 0.937835 0.0
C_ C_ 0.513636 0.127833 0.895361 0.0
C_ C_ 0.587277 0.101369 0.897552 0.0
C_ C_ 0.497466 0.0209744 0.843339 0.0
C_ C_ 0.522711 0.0451638 0.863779 0.0
C_ C_ 0.525293 0.082307 0.85738 0.0
C_ C_ 0.501911 0.0941285 0.830966 0.0
C_ C_ 0.480413 0.0679069 0.809252 0.0
C_ C_ 0.372407 0.216428 0.910905 0.0
C_ C_ 0.34939 0.21147 0.880791 0.0
C_ C_ 0.616946 0.218639 0.884117 0.0
C_ C_ 0.587586 0.209665 0.858154 0.0
C_ C_ 0.612395 0.191903 0.835486 0.0
C_ C_ 0.351154 0.184057 0.830812 0.0
C_ C_ 0.369655 0.1872 0.860025 0.0
C_ C_ 0.587226 0.171082 0.813437 0.0
C_ C_ 0.351341 0.152527 0.816635 0.0
C_ C_ 0.569912 0.0913152 0.737006 0.0
C_ C_ 0.583978 0.122458 0.754498 0.0
C_ C_ 0.608851 0.118591 0.783424 0.0
C_ C_ 0.624963 0.08404 0.791636 0.0
C_ C_ 0.614311 0.0547794 0.771642 0.0
C_ C_ 0.559885 0.455915 0.769464 0.0
C_ C_ 0.564708 0.422571 0.78689 0.0
C_ C_ 0.615434 0.407847 0.786524 0.0
C_ C_ 0.624165 0.378762 0.805388 0.0
C_ C_ 0.581192 0.365137 0.822753 0.0
C_ C_ 0.53146 0.378193 0.822002 0.0
C_ C_ 0.522974 0.406978 0.803628 0.0
C_ C_ 0.510246 0.373884 0.849927 0.0
C_ C_ 0.587406 0.352621 0.850499 0.0
C_ C_ 0.512737 0.269953 0.906971 0.0
C_ C_ 0.532026 0.294465 0.886315 0.0
C_ C_ 0.525521 0.331449 0.890209 0.0
C_ C_ 0.50646 0.342516 0.917423 0.0
C_ C_ 0.483255 0.317299 0.937939 0.0
C_ C_ 0.374393 0.464249 0.83659 0.0
C_ C_ 0.3428 0.456561 0.864374 0.0
C_ C_ 0.613476 0.464915 0.86283 0.0
C_ C_ 0.585615 0.457741 0.890555 0.0
C_ C_ 0.612082 0.441489 0.914017 0.0
C_ C_ 0.337398 0.434712 0.914083 0.0
C_ C_ 0.367461 0.443107 0.889138 0.0
C_ C_ 0.586854 0.420625 0.935335 0.0
C_ C_ 0.34191 0.405163 0.932817 0.0
C_ C_ 0.570904 0.340979 0.51064 0.0
C_ C_ 0.57893 0.371489 0.992378 0.0
C_ C_ 0.607906 0.367279 0.964682 0.0
C_ C_ 0.623842 0.332865 0.957373 0.0
C_ C_ 0.61151 0.30479 0.975815 0.0
C_ C_ 0.443799 0.293569 0.517604 0.0
C_ C_ 0.440068 0.329228 0.531593 0.0
C_ C_ 0.44267 0.361063 0.514628 0.0
C_ C_ 0.457347 0.394317 0.528626 0.0
C_ C_ 0.456785 0.395847 0.560384 0.0
C_ C_ 0.449135 0.364928 0.577433 0.0
C_ C_ 0.43996 0.331963 0.563495 0.0
C_ C_ 0.480739 0.36932 0.603205 0.0
C_ C_ 0.493656 0.417375 0.575078 0.0
C_ C_ 0.504342 0.480923 0.654115 0.0
C_ C_ 0.490027 0.457571 0.630491 0.0
C_ C_ 0.517395 0.426029 0.6279 0.0
C_ C_ 0.54807 0.415878 0.650389 0.0
C_ C_ 0.556086 0.437909 0.675886 0.0
C_ C_ 0.634656 0.289272 0.580671 0.0
C_ C_ 0.665019 0.294825 0.609825 0.0
C_ C_ 0.355473 0.267832 0.623171 0.0
C_ C_ 0.387154 0.278656 0.649234 0.0
C_ C_ 0.390753 0.315139 0.656625 0.0
C_ C_ 0.667963 0.316937 0.661305 0.0
C_ C_ 0.64238 0.312341 0.634476 0.0
C_ C_ 0.396587 0.328978 0.685516 0.0
C_ C_ 0.664947 0.34557 0.680686 0.0
C_ C_ 0.377282 0.412864 0.758256 0.0
C_ C_ 0.360847 0.38667 0.736921 0.0
C_ C_ 0.385584 0.386872 0.708877 0.0
C_ C_ 0.435089 0.407667 0.705844 0.0
C_ C_ 0.450796 0.43368 0.72773 0.0
N_ N_ 0.534283 0.222965 0.570358 0.0
N_ N_ 0.4956 0.162104 0.648935 0.0
N_ N_ 0.386263 0.117301 0.564407 0.0
N_ N_ 0.421274 0.193348 0.496937 0.0
N_ N_ 0.479149 0.0319976 0.816347 0.0
N_ N_ 0.545883 0.107371 0.879203 0.0
N_ N_ 0.622161 0.149113 0.802095 0.0
N_ N_ 0.580918 0.0575062 0.747316 0.0
N_ N_ 0.489294 0.281835 0.932924 0.0
N_ N_ 0.543261 0.356453 0.867162 0.0
N_ N_ 0.621191 0.398141 0.9463 0.0
N_ N_ 0.578156 0.308386 0.000146804 0.0
N_ N_ 0.531282 0.468494 0.678234 0.0
N_ N_ 0.506545 0.402958 0.602288 0.0
N_ N_ 0.370504 0.358619 0.688835 0.0
N_ N_ 0.418724 0.437249 0.751168 0.0
O_ O_ 0.463873 0.0170872 0.715714 0.0
O_ O_ 0.406915 0.03375 0.750659 0.0
O_ O_ 0.465796 0.203529 0.683618 0.0
O_ O_ 0.534034 0.109207 0.641906 0.0
O_ O_ 0.595021 0.0529803 0.67331 0.0
O_ O_ 0.645439 0.0112329 0.682675 0.0
O_ O_ 0.62619 0.116099 0.568273 0.0
O_ O_ 0.470947 0.102292 0.579377 0.0
O_ O_ 0.541281 0.236724 0.968386 0.0
O_ O_ 0.584501 0.213701 0.501511 0.0
O_ O_ 0.632897 0.0932211 0.887276 0.0
O_ O_ 0.461937 0.124226 0.892241 0.0
O_ O_ 0.412024 0.199799 0.919041 0.0
O_ O_ 0.363337 0.242737 0.927051 0.0
O_ O_ 0.397198 0.138106 0.809723 0.0
O_ O_ 0.549846 0.183204 0.797603 0.0
O_ O_ 0.534905 0.480292 0.781071 0.0
O_ O_ 0.591455 0.462282 0.746468 0.0
O_ O_ 0.635686 0.352157 0.864017 0.0
O_ O_ 0.457934 0.368473 0.853212 0.0
O_ O_ 0.419369 0.451118 0.833218 0.0
O_ O_ 0.360258 0.484968 0.81643 0.0
O_ O_ 0.386894 0.39899 0.946864 0.0
O_ O_ 0.55366 0.433708 0.954345 0.0
O_ O_ 0.463305 0.268239 0.531877 0.0
O_ O_ 0.415317 0.284801 0.997283 0.0
O_ O_ 0.527448 0.440921 0.56126 0.0
O_ O_ 0.502285 0.343194 0.61664 0.0
O_ O_ 0.593727 0.30546 0.574063 0.0
O_ O_ 0.642903 0.263267 0.563963 0.0
O_ O_ 0.618295 0.353851 0.692233 0.0
O_ O_ 0.410981 0.309888 0.707975 0.0
Cd Cd 0.562947 0.509809 0.215924 0.0
Cd Cd 0.436303 0.737973 0.464817 0.0
Cd Cd 0.436886 0.988761 0.28576 0.0
Cd Cd 0.56373 0.761981 0.0351835 0.0
H_ H_ 0.356191 0.58302 0.229135 0.0
H_ H_ 0.672097 0.632786 0.194081 0.0
H_ H_ 0.498409 0.565322 0.179756 0.0
H_ H_ 0.498578 0.758649 0.0967872 0.0
H_ H_ 0.453188 0.71495 0.132004 0.0
H_ H_ 0.501985 0.63039 0.0748599 0.0
H_ H_ 0.534455 0.675575 0.038269 0.0
H_ H_ 0.400991 0.518955 0.154219 0.0
H_ H_ 0.453447 0.537124 0.108211 0.0
H_ H_ 0.605055 0.575533 0.119149 0.0
H_ H_ 0.439151 0.653096 0.46602 0.0
H_ H_ 0.423779 0.601057 0.999064 0.0
H_ H_ 0.361913 0.670223 0.0645211 0.0
H_ H_ 0.382502 0.721774 0.0308324 0.0
H_ H_ 0.652687 0.675479 0.469835 0.0
H_ H_ 0.318199 0.609058 0.456616 0.0
H_ H_ 0.499086 0.683504 0.431152 0.0
H_ H_ 0.494749 0.994939 0.346351 0.0
H_ H_ 0.544363 0.535865 0.382509 0.0
H_ H_ 0.505016 0.619972 0.322479 0.0
H_ H_ 0.461207 0.574863 0.28873 0.0
H_ H_ 0.595173 0.72569 0.406037 0.0
H_ H_ 0.5436 0.708696 0.360313 0.0
H_ H_ 0.393267 0.672359 0.369889 0.0
H_ H_ 0.552666 0.596751 0.216988 0.0
H_ H_ 0.580401 0.649244 0.247901 0.0
H_ H_ 0.640955 0.579432 0.314128 0.0
H_ H_ 0.623986 0.529055 0.27865 0.0
H_ H_ 0.64167 0.914249 0.269635 0.0
H_ H_ 0.323356 0.859448 0.297959 0.0
H_ H_ 0.497306 0.933931 0.318292 0.0
H_ H_ 0.498838 0.741854 0.401688 0.0
H_ H_ 0.538028 0.785669 0.366201 0.0
H_ H_ 0.501208 0.87075 0.425852 0.0
H_ H_ 0.461616 0.824652 0.460914 0.0
H_ H_ 0.595621 0.976947 0.344798 0.0
H_ H_ 0.548507 0.969354 0.392648 0.0
H_ H_ 0.389309 0.919314 0.378916 0.0
H_ H_ 0.557286 0.846534 0.0337092 0.0
H_ H_ 0.575947 0.89908 0.500927 0.0
H_ H_ 0.63674 0.829014 0.434754 0.0
H_ H_ 0.618844 0.778081 0.470176 0.0
H_ H_ 0.351506 0.829703 0.0234926 0.0
H_ H_ 0.665496 0.875554 0.0628402 0.0
H_ H_ 0.498892 0.815178 0.0702528 0.0
H_ H_ 0.500395 0.508413 0.152338 0.0
H_ H_ 0.455477 0.964791 0.117439 0.0
H_ H_ 0.499181 0.879969 0.175644 0.0
H_ H_ 0.53885 0.925225 0.2109 0.0
H_ H_ 0.402979 0.77026 0.0952161 0.0
H_ H_ 0.455113 0.786785 0.141306 0.0
H_ H_ 0.604364 0.824876 0.131063 0.0
H_ H_ 0.445366 0.903364 0.28328 0.0
H_ H_ 0.423131 0.850974 0.251095 0.0
H_ H_ 0.360554 0.920902 0.185192 0.0
H_ H_ 0.381605 0.971767 0.219611 0.0
C_ C_ 0.43868 0.539998 0.227052 0.0
C_ C_ 0.42932 0.570771 0.207483 0.0
C_ C_ 0.381853 0.588822 0.210019 0.0
C_ C_ 0.372918 0.617352 0.190542 0.0
C_ C_ 0.414437 0.63051 0.171853 0.0
C_ C_ 0.4608 0.613273 0.169669 0.0
C_ C_ 0.466734 0.581574 0.185219 0.0
C_ C_ 0.481436 0.620719 0.141473 0.0
C_ C_ 0.408884 0.648598 0.145016 0.0
C_ C_ 0.497609 0.730298 0.0920919 0.0
C_ C_ 0.472407 0.705623 0.111814 0.0
C_ C_ 0.471479 0.669032 0.105206 0.0
C_ C_ 0.49651 0.658066 0.0790275 0.0
C_ C_ 0.51981 0.683656 0.0593936 0.0
C_ C_ 0.634705 0.53623 0.167278 0.0
C_ C_ 0.665401 0.544726 0.139664 0.0
C_ C_ 0.384406 0.533773 0.136493 0.0
C_ C_ 0.413353 0.541779 0.110068 0.0
C_ C_ 0.387771 0.557109 0.0859562 0.0
C_ C_ 0.669945 0.568029 0.0889766 0.0
C_ C_ 0.642605 0.56379 0.116129 0.0
C_ C_ 0.413024 0.579403 0.0648629 0.0
C_ C_ 0.666112 0.596676 0.0696897 0.0
C_ C_ 0.430381 0.657225 0.489051 0.0
C_ C_ 0.416542 0.62753 0.00700845 0.0
C_ C_ 0.392127 0.632198 0.0347975 0.0
C_ C_ 0.380366 0.666644 0.0436273 0.0
C_ C_ 0.394123 0.695648 0.0247575 0.0
C_ C_ 0.56132 0.710002 0.477052 0.0
C_ C_ 0.57068 0.679229 0.457483 0.0
C_ C_ 0.618147 0.661178 0.460019 0.0
C_ C_ 0.627082 0.632648 0.440542 0.0
C_ C_ 0.585563 0.61949 0.421853 0.0
C_ C_ 0.5392 0.636727 0.419669 0.0
C_ C_ 0.533266 0.668426 0.435219 0.0
C_ C_ 0.518564 0.629281 0.391473 0.0
C_ C_ 0.591116 0.601402 0.395016 0.0
C_ C_ 0.502391 0.519702 0.342092 0.0
C_ C_ 0.527593 0.544377 0.361814 0.0
C_ C_ 0.528521 0.580968 0.355206 0.0
C_ C_ 0.50349 0.591934 0.329027 0.0
C_ C_ 0.48019 0.566344 0.309394 0.0
C_ C_ 0.365295 0.71377 0.417278 0.0
C_ C_ 0.334599 0.705274 0.389664 0.0
C_ C_ 0.615594 0.716227 0.386493 0.0
C_ C_ 0.586647 0.708221 0.360068 0.0
C_ C_ 0.612229 0.692891 0.335956 0.0
C_ C_ 0.330055 0.681971 0.338977 0.0
C_ C_ 0.357395 0.68621 0.366129 0.0
C_ C_ 0.586976 0.670597 0.314863 0.0
C_ C_ 0.333888 0.653324 0.31969 0.0
C_ C_ 0.569619 0.592775 0.239051 0.0
C_ C_ 0.583458 0.62247 0.257008 0.0
C_ C_ 0.607873 0.617802 0.284798 0.0
C_ C_ 0.619634 0.583356 0.293627 0.0
C_ C_ 0.605877 0.554352 0.274758 0.0
C_ C_ 0.56132 0.960002 0.272948 0.0
C_ C_ 0.57068 0.929229 0.292517 0.0
C_ C_ 0.618147 0.911178 0.289981 0.0
C_ C_ 0.627082 0.882648 0.309458 0.0
C_ C_ 0.585563 0.86949 0.328147 0.0
C_ C_ 0.5392 0.886727 0.330331 0.0
C_ C_ 0.533266 0.918426 0.314781 0.0
C_ C_ 0.518564 0.879281 0.358527 0.0
C_ C_ 0.591116 0.851402 0.354984 0.0
C_ C_ 0.502391 0.769702 0.407908 0.0
C_ C_ 0.527593 0.794377 0.388186 0.0
C_ C_ 0.528521 0.830968 0.394794 0.0
C_ C_ 0.50349 0.841934 0.420973 0.0
C_ C_ 0.48019 0.816344 0.440606 0.0
C_ C_ 0.365295 0.96377 0.332722 0.0
C_ C_ 0.334599 0.955274 0.360336 0.0
C_ C_ 0.615594 0.966227 0.363507 0.0
C_ C_ 0.586647 0.958221 0.389932 0.0
C_ C_ 0.612229 0.942891 0.414044 0.0
C_ C_ 0.330055 0.931971 0.411023 0.0
C_ C_ 0.357395 0.93621 0.383871 0.0
C_ C_ 0.586976 0.920597 0.435137 0.0
C_ C_ 0.333888 0.903324 0.43031 0.0
C_ C_ 0.569619 0.842775 0.010949 0.0
C_ C_ 0.583458 0.87247 0.492992 0.0
C_ C_ 0.607873 0.867802 0.465202 0.0
C_ C_ 0.619634 0.833356 0.456373 0.0
C_ C_ 0.605877 0.804352 0.475242 0.0
C_ C_ 0.43868 0.789998 0.0229477 0.0
C_ C_ 0.42932 0.820771 0.0425173 0.0
C_ C_ 0.381853 0.838822 0.0399812 0.0
C_ C_ 0.372918 0.867352 0.0594584 0.0
C_ C_ 0.414437 0.88051 0.0781469 0.0
C_ C_ 0.4608 0.863273 0.0803307 0.0
C_ C_ 0.466734 0.831574 0.0647812 0.0
C_ C_ 0.481436 0.870719 0.108527 0.0
C_ C_ 0.408884 0.898598 0.104984 0.0
C_ C_ 0.497609 0.980298 0.157908 0.0
C_ C_ 0.472407 0.955623 0.138186 0.0
C_ C_ 0.471479 0.919032 0.144794 0.0
C_ C_ 0.49651 0.908066 0.170973 0.0
C_ C_ 0.51981 0.933656 0.190606 0.0
C_ C_ 0.634705 0.78623 0.0827219 0.0
C_ C_ 0.665401 0.794726 0.110336 0.0
C_ C_ 0.384406 0.783773 0.113507 0.0
C_ C_ 0.413353 0.791779 0.139932 0.0
C_ C_ 0.387771 0.807109 0.164044 0.0
C_ C_ 0.669945 0.818029 0.161023 0.0
C_ C_ 0.642605 0.81379 0.133871 0.0
C_ C_ 0.413024 0.829403 0.185137 0.0
C_ C_ 0.666112 0.846676 0.18031 0.0
C_ C_ 0.430381 0.907225 0.260949 0.0
C_ C_ 0.416542 0.87753 0.242992 0.0
C_ C_ 0.392127 0.882198 0.215202 0.0
C_ C_ 0.380366 0.916644 0.206373 0.0
C_ C_ 0.394123 0.945648 0.225242 0.0
N_ N_ 0.519601 0.719087 0.066102 0.0
N_ N_ 0.450277 0.642872 0.126543 0.0
N_ N_ 0.378193 0.601806 0.0536496 0.0
N_ N_ 0.420902 0.690701 0.9986 0.0
N_ N_ 0.480399 0.530913 0.316102 0.0
N_ N_ 0.549723 0.607128 0.376543 0.0
N_ N_ 0.621807 0.648194 0.30365 0.0
N_ N_ 0.579098 0.559299 0.2486 0.0
N_ N_ 0.480399 0.780913 0.433898 0.0
N_ N_ 0.549723 0.857128 0.373457 0.0
N_ N_ 0.621807 0.898194 0.44635 0.0
N_ N_ 0.579098 0.809299 0.5014 0.0
N_ N_ 0.519601 0.969087 0.183898 0.0
N_ N_ 0.450277 0.892872 0.123457 0.0
N_ N_ 0.378193 0.851806 0.19635 0.0
N_ N_ 0.420902 0.940701 0.2514 0.0
O_ O_ 0.465517 0.514997 0.217173 0.0
O_ O_ 0.410651 0.534476 0.250578 0.0
O_ O_ 0.362123 0.655721 0.134274 0.0
O_ O_ 0.532653 0.620132 0.13586 0.0
O_ O_ 0.59232 0.551058 0.172831 0.0
O_ O_ 0.645557 0.510599 0.184197 0.0
O_ O_ 0.620206 0.605994 0.059287 0.0
O_ O_ 0.454156 0.569983 0.0492879 0.0
O_ O_ 0.534483 0.735003 0.467173 0.0
O_ O_ 0.589349 0.715524 0.000578323 0.0
O_ O_ 0.637877 0.594279 0.384274 0.0
O_ O_ 0.467347 0.629868 0.38586 0.0
O_ O_ 0.40768 0.698942 0.422831 0.0
O_ O_ 0.354443 0.739401 0.434197 0.0
O_ O_ 0.379794 0.644007 0.309287 0.0
O_ O_ 0.545844 0.680017 0.299288 0.0
O_ O_ 0.534483 0.985003 0.282827 0.0
O_ O_ 0.589349 0.965524 0.249422 0.0
O_ O_ 0.637877 0.844279 0.365726 0.0
O_ O_ 0.467347 0.879868 0.36414 0.0
O_ O_ 0.40768 0.948942 0.327169 0.0
O_ O_ 0.354443 0.989401 0.315803 0.0
O_ O_ 0.379794 0.894007 0.440713 0.0
O_ O_ 0.545844 0.930017 0.450712 0.0
O_ O_ 0.465517 0.764997 0.032827 0.0
O_ O_ 0.410651 0.784476 0.499422 0.0
O_ O_ 0.362123 0.905721 0.115726 0.0
O_ O_ 0.532653 0.870132 0.11414 0.0
O_ O_ 0.59232 0.801058 0.0771694 0.0
O_ O_ 0.645557 0.760599 0.0658027 0.0
O_ O_ 0.620206 0.855994 0.190713 0.0
O_ O_ 0.454156 0.819983 0.200712 0.0
Cd Cd 0.563502 0.511719 0.71467 0.0
Cd Cd 0.436498 0.738281 0.96467 0.0
Cd Cd 0.436498 0.988281 0.78533 0.0
Cd Cd 0.563502 0.761719 0.53533 0.0
H_ H_ 0.351294 0.579745 0.725897 0.0
H_ H_ 0.668104 0.629013 0.690298 0.0
H_ H_ 0.498892 0.565178 0.679747 0.0
H_ H_ 0.500395 0.758413 0.597662 0.0
H_ H_ 0.455477 0.714791 0.632561 0.0
H_ H_ 0.499181 0.629969 0.574356 0.0
H_ H_ 0.53885 0.675225 0.5391 0.0
H_ H_ 0.402979 0.52026 0.654784 0.0
H_ H_ 0.455113 0.536785 0.608694 0.0
H_ H_ 0.604364 0.574876 0.618937 0.0
H_ H_ 0.445366 0.653364 0.96672 0.0
H_ H_ 0.423131 0.600974 0.498905 0.0
H_ H_ 0.360554 0.670902 0.564808 0.0
H_ H_ 0.381605 0.721767 0.530389 0.0
H_ H_ 0.648706 0.670255 0.975897 0.0
H_ H_ 0.331896 0.620987 0.940298 0.0
H_ H_ 0.501108 0.684822 0.929747 0.0
H_ H_ 0.499605 0.991587 0.847662 0.0
H_ H_ 0.544523 0.535209 0.882561 0.0
H_ H_ 0.500819 0.620031 0.824356 0.0
H_ H_ 0.46115 0.574775 0.7891 0.0
H_ H_ 0.597021 0.72974 0.904784 0.0
H_ H_ 0.544887 0.713215 0.858694 0.0
H_ H_ 0.395636 0.675124 0.868937 0.0
H_ H_ 0.554634 0.596636 0.71672 0.0
H_ H_ 0.576869 0.649026 0.748905 0.0
H_ H_ 0.639446 0.579098 0.814808 0.0
H_ H_ 0.618395 0.528233 0.780389 0.0
H_ H_ 0.648706 0.920255 0.774103 0.0
H_ H_ 0.331896 0.870987 0.809702 0.0
H_ H_ 0.501108 0.934822 0.820253 0.0
H_ H_ 0.499605 0.741587 0.902338 0.0
H_ H_ 0.544523 0.785209 0.867439 0.0
H_ H_ 0.500819 0.870031 0.925644 0.0
H_ H_ 0.46115 0.824775 0.9609 0.0
H_ H_ 0.597021 0.97974 0.845216 0.0
H_ H_ 0.544887 0.963215 0.891306 0.0
H_ H_ 0.395636 0.925124 0.881063 0.0
H_ H_ 0.554634 0.846636 0.53328 0.0
H_ H_ 0.576869 0.899026 0.00109454 0.0
H_ H_ 0.639446 0.829098 0.935192 0.0
H_ H_ 0.618395 0.778233 0.969611 0.0
H_ H_ 0.351294 0.829745 0.524103 0.0
H_ H_ 0.668104 0.879013 0.559702 0.0
H_ H_ 0.498892 0.815178 0.570253 0.0
H_ H_ 0.500395 0.508413 0.652338 0.0
H_ H_ 0.455477 0.964791 0.617439 0.0
H_ H_ 0.499181 0.879969 0.675644 0.0
H_ H_ 0.53885 0.925225 0.7109 0.0
H_ H_ 0.402979 0.77026 0.595216 0.0
H_ H_ 0.455113 0.786785 0.641306 0.0
H_ H_ 0.604364 0.824876 0.631063 0.0
H_ H_ 0.445366 0.903364 0.78328 0.0
H_ H_ 0.423131 0.850974 0.751095 0.0
H_ H_ 0.360554 0.920902 0.685192 0.0
H_ H_ 0.381605 0.971767 0.719611 0.0
C_ C_ 0.43868 0.539998 0.727052 0.0
C_ C_ 0.42932 0.570771 0.707483 0.0
C_ C_ 0.381853 0.588822 0.710019 0.0
C_ C_ 0.372918 0.617352 0.690542 0.0
C_ C_ 0.414437 0.63051 0.671853 0.0
C_ C_ 0.4608 0.613273 0.669669 0.0
C_ C_ 0.466734 0.581574 0.685219 0.0
C_ C_ 0.481436 0.620719 0.641473 0.0
C_ C_ 0.408884 0.648598 0.645016 0.0
C_ C_ 0.497609 0.730298 0.592092 0.0
C_ C_ 0.472407 0.705623 0.611814 0.0
C_ C_ 0.471479 0.669032 0.605206 0.0
C_ C_ 0.49651 0.658066 0.579027 0.0
C_ C_ 0.51981 0.683656 0.559394 0.0
C_ C_ 0.634705 0.53623 0.667278 0.0
C_ C_ 0.665401 0.544726 0.639664 0.0
C_ C_ 0.384406 0.533773 0.636493 0.0
C_ C_ 0.413353 0.541779 0.610068 0.0
C_ C_ 0.387771 0.557109 0.585956 0.0
C_ C_ 0.669945 0.568029 0.588977 0.0
C_ C_ 0.642605 0.56379 0.616129 0.0
C_ C_ 0.413024 0.579403 0.564863 0.0
C_ C_ 0.666112 0.596676 0.56969 0.0
C_ C_ 0.430381 0.657225 0.989051 0.0
C_ C_ 0.416542 0.62753 0.507008 0.0
C_ C_ 0.392127 0.632198 0.534798 0.0
C_ C_ 0.380366 0.666644 0.543627 0.0
C_ C_ 0.394123 0.695648 0.524758 0.0
C_ C_ 0.56132 0.710002 0.977052 0.0
C_ C_ 0.57068 0.679229 0.957483 0.0
C_ C_ 0.618147 0.661178 0.960019 0.0
C_ C_ 0.627082 0.632648 0.940542 0.0
C_ C_ 0.585563 0.61949 0.921853 0.0
C_ C_ 0.5392 0.636727 0.919669 0.0
C_ C_ 0.533266 0.668426 0.935219 0.0
C_ C_ 0.518564 0.629281 0.891473 0.0
C_ C_ 0.591116 0.601402 0.895016 0.0
C_ C_ 0.502391 0.519702 0.842092 0.0
C_ C_ 0.527593 0.544377 0.861814 0.0
C_ C_ 0.528521 0.580968 0.855206 0.0
C_ C_ 0.50349 0.591934 0.829027 0.0
C_ C_ 0.48019 0.566344 0.809394 0.0
C_ C_ 0.365295 0.71377 0.917278 0.0
C_ C_ 0.334599 0.705274 0.889664 0.0
C_ C_ 0.615594 0.716227 0.886493 0.0
C_ C_ 0.586647 0.708221 0.860068 0.0
C_ C_ 0.612229 0.692891 0.835956 0.0
C_ C_ 0.330055 0.681971 0.838977 0.0
C_ C_ 0.357395 0.68621 0.866129 0.0
C_ C_ 0.586976 0.670597 0.814863 0.0
C_ C_ 0.333888 0.653324 0.81969 0.0
C_ C_ 0.569619 0.592775 0.739051 0.0
C_ C_ 0.583458 0.62247 0.757008 0.0
C_ C_ 0.607873 0.617802 0.784798 0.0
C_ C_ 0.619634 0.583356 0.793627 0.0
C_ C_ 0.605877 0.554352 0.774758 0.0
C_ C_ 0.56132 0.960002 0.772948 0.0
C_ C_ 0.57068 0.929229 0.792517 0.0
C_ C_ 0.618147 0.911178 0.789981 0.0
C_ C_ 0.627082 0.882648 0.809458 0.0
C_ C_ 0.585563 0.86949 0.828147 0.0
C_ C_ 0.5392 0.886727 0.830331 0.0
C_ C_ 0.533266 0.918426 0.814781 0.0
C_ C_ 0.518564 0.879281 0.858527 0.0
C_ C_ 0.591116 0.851402 0.854984 0.0
C_ C_ 0.502391 0.769702 0.907908 0.0
C_ C_ 0.527593 0.794377 0.888186 0.0
C_ C_ 0.528521 0.830968 0.894794 0.0
C_ C_ 0.50349 0.841934 0.920973 0.0
C_ C_ 0.48019 0.816344 0.940606 0.0
C_ C_ 0.365295 0.96377 0.832722 0.0
C_ C_ 0.334599 0.955274 0.860336 0.0
C_ C_ 0.615594 0.966227 0.863507 0.0
C_ C_ 0.586647 0.958221 0.889932 0.0
C_ C_ 0.612229 0.942891 0.914044 0.0
C_ C_ 0.330055 0.931971 0.911023 0.0
C_ C_ 0.357395 0.93621 0.883871 0.0
C_ C_ 0.586976 0.920597 0.935137 0.0
C_ C_ 0.333888 0.903324 0.93031 0.0
C_ C_ 0.569619 0.842775 0.510949 0.0
C_ C_ 0.583458 0.87247 0.992992 0.0
C_ C_ 0.607873 0.867802 0.965202 0.0
C_ C_ 0.619634 0.833356 0.956373 0.0
C_ C_ 0.605877 0.804352 0.975242 0.0
C_ C_ 0.43868 0.789998 0.522948 0.0
C_ C_ 0.42932 0.820771 0.542517 0.0
C_ C_ 0.381853 0.838822 0.539981 0.0
C_ C_ 0.372918 0.867352 0.559458 0.0
C_ C_ 0.414437 0.88051 0.578147 0.0
C_ C_ 0.4608 0.863273 0.580331 0.0
C_ C_ 0.466734 0.831574 0.564781 0.0
C_ C_ 0.481436 0.870719 0.608527 0.0
C_ C_ 0.408884 0.898598 0.604984 0.0
C_ C_ 0.497609 0.980298 0.657908 0.0
C_ C_ 0.472407 0.955623 0.638186 0.0
C_ C_ 0.471479 0.919032 0.644794 0.0
C_ C_ 0.49651 0.908066 0.670973 0.0
C_ C_ 0.51981 0.933656 0.690606 0.0
C_ C_ 0.634705 0.78623 0.582722 0.0
C_ C_ 0.665401 0.794726 0.610336 0.0
C_ C_ 0.384406 0.783773 0.613507 0.0
C_ C_ 0.413353 0.791779 0.639932 0.0
C_ C_ 0.387771 0.807109 0.664044 0.0
C_ C_ 0.669945 0.818029 0.661023 0.0
C_ C_ 0.642605 0.81379 0.633871 0.0
C_ C_ 0.413024 0.829403 0.685137 0.0
C_ C_ 0.666112 0.846676 0.68031 0.0
C_ C_ 0.430381 0.907225 0.760949 0.0
C_ C_ 0.416542 0.87753 0.742992 0.0
C_ C_ 0.392127 0.882198 0.715202 0.0
C_ C_ 0.380366 0.916644 0.706373 0.0
C_ C_ 0.394123 0.945648 0.725242 0.0
N_ N_ 0.519601 0.719087 0.566102 0.0
N_ N_ 0.450277 0.642872 0.626543 0.0
N_ N_ 0.378193 0.601806 0.55365 0.0
N_ N_ 0.420902 0.690701 0.4986 0.0
N_ N_ 0.480399 0.530913 0.816102 0.0
N_ N_ 0.549723 0.607128 0.876543 0.0
N_ N_ 0.621807 0.648194 0.80365 0.0
N_ N_ 0.579098 0.559299 0.7486 0.0
N_ N_ 0.480399 0.780913 0.933898 0.0
N_ N_ 0.549723 0.857128 0.873457 0.0
N_ N_ 0.621807 0.898194 0.94635 0.0
N_ N_ 0.579098 0.809299 0.00139979 0.0
N_ N_ 0.519601 0.969087 0.683898 0.0
N_ N_ 0.450277 0.892872 0.623457 0.0
N_ N_ 0.378193 0.851806 0.69635 0.0
N_ N_ 0.420902 0.940701 0.7514 0.0
O_ O_ 0.465517 0.514997 0.717173 0.0
O_ O_ 0.410651 0.534476 0.750578 0.0
O_ O_ 0.362123 0.655721 0.634274 0.0
O_ O_ 0.532653 0.620132 0.63586 0.0
O_ O_ 0.59232 0.551058 0.672831 0.0
O_ O_ 0.645557 0.510599 0.684197 0.0
O_ O_ 0.620206 0.605994 0.559287 0.0
O_ O_ 0.454156 0.569983 0.549288 0.0
O_ O_ 0.534483 0.735003 0.967173 0.0
O_ O_ 0.589349 0.715524 0.500578 0.0
O_ O_ 0.637877 0.594279 0.884274 0.0
O_ O_ 0.467347 0.629868 0.88586 0.0
O_ O_ 0.40768 0.698942 0.922831 0.0
O_ O_ 0.354443 0.739401 0.934197 0.0
O_ O_ 0.379794 0.644007 0.809287 0.0
O_ O_ 0.545844 0.680017 0.799288 0.0
O_ O_ 0.534483 0.985003 0.782827 0.0
O_ O_ 0.589349 0.965524 0.749422 0.0
O_ O_ 0.637877 0.844279 0.865726 0.0
O_ O_ 0.467347 0.879868 0.86414 0.0
O_ O_ 0.40768 0.948942 0.827169 0.0
O_ O_ 0.354443 0.989401 0.815803 0.0
O_ O_ 0.379794 0.894007 0.940713 0.0
O_ O_ 0.545844 0.930017 0.950712 0.0
O_ O_ 0.465517 0.764997 0.532827 0.0
O_ O_ 0.410651 0.784476 0.999422 0.0
O_ O_ 0.362123 0.905721 0.615726 0.0
O_ O_ 0.532653 0.870132 0.61414 0.0
O_ O_ 0.59232 0.801058 0.577169 0.0
O_ O_ 0.645557 0.760599 0.565803 0.0
O_ O_ 0.620206 0.855994 0.690713 0.0
O_ O_ 0.454156 0.819983 0.700712 0.0
Cd Cd 0.896835 0.0117191 0.21467 0.0
Cd Cd 0.769832 0.238281 0.46467 0.0
Cd Cd 0.769832 0.488281 0.28533 0.0
Cd Cd 0.896835 0.261719 0.0353296 0.0
H_ H_ 0.684627 0.0797452 0.225897 0.0
H_ H_ 0.00143726 0.129013 0.190298 0.0
H_ H_ 0.832225 0.0651784 0.179747 0.0
H_ H_ 0.833728 0.258413 0.0976618 0.0
H_ H_ 0.78881 0.214791 0.132561 0.0
H_ H_ 0.832514 0.129969 0.0743557 0.0
H_ H_ 0.872183 0.175225 0.0391002 0.0
H_ H_ 0.736312 0.0202596 0.154784 0.0
H_ H_ 0.788447 0.0367846 0.108694 0.0
H_ H_ 0.937697 0.0748764 0.118937 0.0
H_ H_ 0.778699 0.153364 0.46672 0.0
H_ H_ 0.756465 0.100974 0.998905 0.0
H_ H_ 0.693888 0.170902 0.0648075 0.0
H_ H_ 0.714938 0.221767 0.0303887 0.0
H_ H_ 0.98204 0.170255 0.475897 0.0
H_ H_ 0.665229 0.120987 0.440298 0.0
H_ H_ 0.834442 0.184822 0.429747 0.0
H_ H_ 0.832939 0.491587 0.347662 0.0
H_ H_ 0.877857 0.035209 0.382561 0.0
H_ H_ 0.834153 0.120031 0.324356 0.0
H_ H_ 0.794483 0.0747749 0.2891 0.0
H_ H_ 0.930355 0.22974 0.404784 0.0
H_ H_ 0.87822 0.213215 0.358694 0.0
H_ H_ 0.728969 0.175124 0.368937 0.0
H_ H_ 0.887968 0.0966362 0.21672 0.0
H_ H_ 0.910202 0.149026 0.248905 0.0
H_ H_ 0.972779 0.0790981 0.314808 0.0
H_ H_ 0.951728 0.0282328 0.280389 0.0
H_ H_ 0.98204 0.420255 0.274103 0.0
H_ H_ 0.665229 0.370987 0.309702 0.0
H_ H_ 0.834442 0.434822 0.320253 0.0
H_ H_ 0.832939 0.241587 0.402338 0.0
H_ H_ 0.877857 0.285209 0.367439 0.0
H_ H_ 0.834153 0.370031 0.425644 0.0
H_ H_ 0.794483 0.324775 0.4609 0.0
H_ H_ 0.930355 0.47974 0.345216 0.0
H_ H_ 0.87822 0.463215 0.391306 0.0
H_ H_ 0.728969 0.425124 0.381063 0.0
H_ H_ 0.887968 0.346636 0.0332805 0.0
H_ H_ 0.910202 0.399026 0.501095 0.0
H_ H_ 0.972779 0.329098 0.435192 0.0
H_ H_ 0.951728 0.278233 0.469611 0.0
H_ H_ 0.684627 0.329745 0.0241033 0.0
H_ H_ 0.00143727 0.379013 0.0597022 0.0
H_ H_ 0.832225 0.315178 0.0702528 0.0
H_ H_ 0.833728 0.00841344 0.152338 0.0
H_ H_ 0.78881 0.464791 0.117439 0.0
H_ H_ 0.832514 0.379969 0.175644 0.0
H_ H_ 0.872183 0.425225 0.2109 0.0
H_ H_ 0.736312 0.27026 0.0952161 0.0
H_ H_ 0.788447 0.286785 0.141306 0.0
H_ H_ 0.937697 0.324876 0.131063 0.0
H_ H_ 0.778699 0.403364 0.28328 0.0
H_ H_ 0.756465 0.350974 0.251095 0.0
H_ H_ 0.693888 0.420902 0.185192 0.0
H_ H_ 0.714938 0.471767 0.219611 0.0
C_ C_ 0.772014 0.0399984 0.227052 0.0
C_ C_ 0.762653 0.0707715 0.207483 0.0
C_ C_ 0.715187 0.0888219 0.210019 0.0
C_ C_ 0.706251 0.117352 0.190542 0.0
C_ C_ 0.747771 0.13051 0.171853 0.0
C_ C_ 0.794133 0.113273 0.169669 0.0
C_ C_ 0.800068 0.0815736 0.185219 0.0
C_ C_ 0.814769 0.120719 0.141473 0.0
C_ C_ 0.742217 0.148598 0.145016 0.0
C_ C_ 0.830943 0.230298 0.0920919 0.0
C_ C_ 0.80574 0.205623 0.111814 0.0
C_ C_ 0.804812 0.169032 0.105206 0.0
C_ C_ 0.829843 0.158066 0.0790275 0.0
C_ C_ 0.853144 0.183656 0.0593936 0.0
C_ C_ 0.968039 0.0362297 0.167278 0.0
C_ C_ 0.998734 0.0447258 0.139664 0.0
C_ C_ 0.717739 0.0337728 0.136493 0.0
C_ C_ 0.746686 0.0417792 0.110068 0.0
C_ C_ 0.721104 0.0571085 0.0859562 0.0
C_ C_ 0.00327862 0.0680289 0.0889766 0.0
C_ C_ 0.975938 0.0637899 0.116129 0.0
C_ C_ 0.746357 0.0794027 0.0648629 0.0
C_ C_ 0.999445 0.0966762 0.0696897 0.0
C_ C_ 0.763715 0.157225 0.489051 0.0
C_ C_ 0.749875 0.12753 0.00700845 0.0
C_ C_ 0.725461 0.132198 0.0347975 0.0
C_ C_ 0.713699 0.166644 0.0436273 0.0
C_ C_ 0.727456 0.195648 0.0247575 0.0
C_ C_ 0.894653 0.210002 0.477052 0.0
C_ C_ 0.904014 0.179229 0.457483 0.0
C_ C_ 0.95148 0.161178 0.460019 0.0
C_ C_ 0.960415 0.132648 0.440542 0.0
C_ C_ 0.918896 0.11949 0.421853 0.0
C_ C_ 0.872534 0.136727 0.419669 0.0
C_ C_ 0.866599 0.168426 0.435219 0.0
C_ C_ 0.851898 0.129281 0.391473 0.0
C_ C_ 0.924449 0.101402 0.395016 0.0
C_ C_ 0.835724 0.0197024 0.342092 0.0
C_ C_ 0.860926 0.044377 0.361814 0.0
C_ C_ 0.861855 0.0809681 0.355206 0.0
C_ C_ 0.836823 0.0919345 0.329027 0.0
C_ C_ 0.813523 0.0663441 0.309394 0.0
C_ C_ 0.698628 0.21377 0.417278 0.0
C_ C_ 0.667933 0.205274 0.389664 0.0
C_ C_ 0.948927 0.216227 0.386493 0.0
C_ C_ 0.91998 0.208221 0.360068 0.0
C_ C_ 0.945562 0.192891 0.335956 0.0
C_ C_ 0.663388 0.181971 0.338977 0.0
C_ C_ 0.690729 0.18621 0.366129 0.0
C_ C_ 0.92031 0.170597 0.314863 0.0
C_ C_ 0.667221 0.153324 0.31969 0.0
C_ C_ 0.902952 0.0927748 0.239051 0.0
C_ C_ 0.916792 0.12247 0.257008 0.0
C_ C_ 0.941206 0.117802 0.284798 0.0
C_ C_ 0.952968 0.0833558 0.293627 0.0
C_ C_ 0.93921 0.0543523 0.274758 0.0
C_ C_ 0.894653 0.460002 0.272948 0.0
C_ C_ 0.904014 0.429229 0.292517 0.0
C_ C_ 0.95148 0.411178 0.289981 0.0
C_ C_ 0.960415 0.382648 0.309458 0.0
C_ C_ 0.918896 0.36949 0.328147 0.0
C_ C_ 0.872534 0.386727 0.330331 0.0
C_ C_ 0.866599 0.418426 0.314781 0.0
C_ C_ 0.851898 0.379281 0.358527 0.0
C_ C_ 0.924449 0.351402 0.354984 0.0
C_ C_ 0.835724 0.269702 0.407908 0.0
C_ C_ 0.860926 0.294377 0.388186 0.0
C_ C_ 0.861855 0.330968 0.394794 0.0
C_ C_ 0.836823 0.341934 0.420973 0.0
C_ C_ 0.813523 0.316344 0.440606 0.0
C_ C_ 0.698628 0.46377 0.332722 0.0
C_ C_ 0.667933 0.455274 0.360336 0.0
C_ C_ 0.948927 0.466227 0.363507 0.0
C_ C_ 0.91998 0.458221 0.389932 0.0
C_ C_ 0.945562 0.442891 0.414044 0.0
C_ C_ 0.663388 0.431971 0.411023 0.0
C_ C_ 0.690729 0.43621 0.383871 0.0
C_ C_ 0.92031 0.420597 0.435137 0.0
C_ C_ 0.667221 0.403324 0.43031 0.0
C_ C_ 0.902952 0.342775 0.010949 0.0
C_ C_ 0.916792 0.37247 0.492992 0.0
C_ C_ 0.941206 0.367802 0.465202 0.0
C_ C_ 0.952968 0.333356 0.456373 0.0
C_ C_ 0.93921 0.304352 0.475242 0.0
C_ C_ 0.772014 0.289998 0.0229477 0.0
C_ C_ 0.762653 0.320771 0.0425173 0.0
C_ C_ 0.715187 0.338822 0.0399812 0.0
C_ C_ 0.706251 0.367352 0.0594584 0.0
C_ C_ 0.747771 0.38051 0.0781469 0.0
C_ C_ 0.794133 0.363273 0.0803307 0.0
C_ C_ 0.800068 0.331574 0.0647813 0.0
C_ C_ 0.814769 0.370719 0.108527 0.0
C_ C_ 0.742217 0.398598 0.104984 0.0
C_ C_ 0.830943 0.480298 0.157908 0.0
C_ C_ 0.80574 0.455623 0.138186 0.0
C_ C_ 0.804812 0.419032 0.144794 0.0
C_ C_ 0.829843 0.408066 0.170973 0.0
C_ C_ 0.853144 0.433656 0.190606 0.0
C_ C_ 0.968039 0.28623 0.0827219 0.0
C_ C_ 0.998734 0.294726 0.110336 0.0
C_ C_ 0.717739 0.283773 0.113507 0.0
C_ C_ 0.746686 0.291779 0.139932 0.0
C_ C_ 0.721104 0.307109 0.164044 0.0
C_ C_ 0.00327863 0.318029 0.161023 0.0
C_ C_ 0.975938 0.31379 0.133871 0.0
C_ C_ 0.746357 0.329403 0.185137 0.0
C_ C_ 0.999445 0.346676 0.18031 0.0
C_ C_ 0.763715 0.407225 0.260949 0.0
C_ C_ 0.749875 0.37753 0.242992 0.0
C_ C_ 0.725461 0.382198 0.215202 0.0
C_ C_ 0.713699 0.416644 0.206373 0.0
C_ C_ 0.727456 0.445648 0.225242 0.0
N_ N_ 0.852935 0.219087 0.066102 0.0
N_ N_ 0.783611 0.142872 0.126543 0.0
N_ N_ 0.711527 0.101806 0.0536496 0.0
N_ N_ 0.754235 0.190701 0.9986 0.0
N_ N_ 0.813732 0.030913 0.316102 0.0
N_ N_ 0.883056 0.107128 0.376543 0.0
N_ N_ 0.95514 0.148194 0.30365 0.0
N_ N_ 0.912431 0.0592986 0.2486 0.0
N_ N_ 0.813732 0.280913 0.433898 0.0
N_ N_ 0.883056 0.357128 0.373457 0.0
N_ N_ 0.95514 0.398194 0.44635 0.0
N_ N_ 0.912431 0.309299 0.5014 0.0
N_ N_ 0.852935 0.469087 0.183898 0.0
N_ N_ 0.783611 0.392872 0.123457 0.0
N_ N_ 0.711527 0.351806 0.19635 0.0
N_ N_ 0.754235 0.440701 0.2514 0.0
O_ O_ 0.79885 0.0149975 0.217173 0.0
O_ O_ 0.743984 0.0344756 0.250578 0.0
O_ O_ 0.695457 0.155721 0.134274 0.0
O_ O_ 0.865986 0.120132 0.13586 0.0
O_ O_ 0.925653 0.0510577 0.172831 0.0
O_ O_ 0.978891 0.0105991 0.184197 0.0
O_ O_ 0.95354 0.105994 0.059287 0.0
O_ O_ 0.78749 0.0699826 0.0492879 0.0
O_ O_ 0.867816 0.235003 0.467173 0.0
O_ O_ 0.922682 0.215524 0.000578323 0.0
O_ O_ 0.97121 0.094279 0.384274 0.0
O_ O_ 0.80068 0.129868 0.38586 0.0
O_ O_ 0.741013 0.198942 0.422831 0.0
O_ O_ 0.687776 0.239401 0.434197 0.0
O_ O_ 0.713127 0.144006 0.309287 0.0
O_ O_ 0.879177 0.180017 0.299288 0.0
O_ O_ 0.867816 0.485003 0.282827 0.0
O_ O_ 0.922682 0.465524 0.249422 0.0
O_ O_ 0.97121 0.344279 0.365726 0.0
O_ O_ 0.80068 0.379868 0.36414 0.0
O_ O_ 0.741013 0.448942 0.327169 0.0
O_ O_ 0.687776 0.489401 0.315803 0.0
O_ O_ 0.713127 0.394006 0.440713 0.0
O_ O_ 0.879177 0.430017 0.450712 0.0
O_ O_ 0.79885 0.264997 0.032827 0.0
O_ O_ 0.743984 0.284476 0.499422 0.0
O_ O_ 0.695457 0.405721 0.115726 0.0
O_ O_ 0.865986 0.370132 0.11414 0.0
O_ O_ 0.925653 0.301058 0.0771694 0.0
O_ O_ 0.978891 0.260599 0.0658027 0.0
O_ O_ 0.95354 0.355994 0.190713 0.0
O_ O_ 0.78749 0.319983 0.200712 0.0
Cd Cd 0.896835 0.0117191 0.71467 0.0
Cd Cd 0.769832 0.238281 0.96467 0.0
Cd Cd 0.769832 0.488281 0.78533 0.0
Cd Cd 0.896835 0.261719 0.53533 0.0
H_ H_ 0.684627 0.0797452 0.725897 0.0
H_ H_ 0.00143726 0.129013 0.690298 0.0
H_ H_ 0.832225 0.0651784 0.679747 0.0
H_ H_ 0.833728 0.258413 0.597662 0.0
H_ H_ 0.78881 0.214791 0.632561 0.0
H_ H_ 0.832514 0.129969 0.574356 0.0
H_ H_ 0.872183 0.175225 0.5391 0.0
H_ H_ 0.736312 0.0202596 0.654784 0.0
H_ H_ 0.788447 0.0367846 0.608694 0.0
H_ H_ 0.937697 0.0748764 0.618937 0.0
H_ H_ 0.778699 0.153364 0.96672 0.0
H_ H_ 0.756465 0.100974 0.498905 0.0
H_ H_ 0.693888 0.170902 0.564808 0.0
H_ H_ 0.714938 0.221767 0.530389 0.0
H_ H_ 0.98204 0.170255 0.975897 0.0
H_ H_ 0.665229 0.120987 0.940298 0.0
H_ H_ 0.834442 0.184822 0.929747 0.0
H_ H_ 0.832939 0.491587 0.847662 0.0
H_ H_ 0.877857 0.035209 0.882561 0.0
H_ H_ 0.834153 0.120031 0.824356 0.0
H_ H_ 0.794483 0.0747749 0.7891 0.0
H_ H_ 0.930355 0.22974 0.904784 0.0
H_ H_ 0.87822 0.213215 0.858694 0.0
H_ H_ 0.728969 0.175124 0.868937 0.0
H_ H_ 0.887968 0.0966362 0.71672 0.0
H_ H_ 0.910202 0.149026 0.748905 0.0
H_ H_ 0.972779 0.0790981 0.814808 0.0
H_ H_ 0.951728 0.0282328 0.780389 0.0
H_ H_ 0.98204 0.420255 0.774103 0.0
H_ H_ 0.665229 0.370987 0.809702 0.0
H_ H_ 0.834442 0.434822 0.820253 0.0
H_ H_ 0.832939 0.241587 0.902338 0.0
H_ H_ 0.877857 0.285209 0.867439 0.0
H_ H_ 0.834153 0.370031 0.925644 0.0
H_ H_ 0.794483 0.324775 0.9609 0.0
H_ H_ 0.930355 0.47974 0.845216 0.0
H_ H_ 0.87822 0.463215 0.891306 0.0
H_ H_ 0.728969 0.425124 0.881063 0.0
H_ H_ 0.887968 0.346636 0.53328 0.0
H_ H_ 0.910202 0.399026 0.00109454 0.0
H_ H_ 0.972779 0.329098 0.935192 0.0
H_ H_ 0.951728 0.278233 0.969611 0.0
H_ H_ 0.684627 0.329745 0.524103 0.0
H_ H_ 0.00143727 0.379013 0.559702 0.0
H_ H_ 0.832225 0.315178 0.570253 0.0
H_ H_ 0.833728 0.00841344 0.652338 0.0
H_ H_ 0.78881 0.464791 0.617439 0.0
H_ H_ 0.832514 0.379969 0.675644 0.0
H_ H_ 0.872183 0.425225 0.7109 0.0
H_ H_ 0.736312 0.27026 0.595216 0.0
H_ H_ 0.788447 0.286785 0.641306 0.0
H_ H_ 0.937697 0.324876 0.631063 0.0
H_ H_ 0.778699 0.403364 0.78328 0.0
H_ H_ 0.756465 0.350974 0.751095 0.0
H_ H_ 0.693888 0.420902 0.685192 0.0
H_ H_ 0.714938 0.471767 0.719611 0.0
C_ C_ 0.772014 0.0399984 0.727052 0.0
C_ C_ 0.762653 0.0707715 0.707483 0.0
C_ C_ 0.715187 0.0888219 0.710019 0.0
C_ C_ 0.706251 0.117352 0.690542 0.0
C_ C_ 0.747771 0.13051 0.671853 0.0
C_ C_ 0.794133 0.113273 0.669669 0.0
C_ C_ 0.800068 0.0815736 0.685219 0.0
C_ C_ 0.814769 0.120719 0.641473 0.0
C_ C_ 0.742217 0.148598 0.645016 0.0
C_ C_ 0.830943 0.230298 0.592092 0.0
C_ C_ 0.80574 0.205623 0.611814 0.0
C_ C_ 0.804812 0.169032 0.605206 0.0
C_ C_ 0.829843 0.158066 0.579027 0.0
C_ C_ 0.853144 0.183656 0.559394 0.0
C_ C_ 0.968039 0.0362297 0.667278 0.0
C_ C_ 0.998734 0.0447258 0.639664 0.0
C_ C_ 0.717739 0.0337728 0.636493 0.0
C_ C_ 0.746686 0.0417792 0.610068 0.0
C_ C_ 0.721104 0.0571085 0.585956 0.0
C_ C_ 0.00327862 0.0680289 0.588977 0.0
C_ C_ 0.975938 0.0637899 0.616129 0.0
C_ C_ 0.746357 0.0794027 0.564863 0.0
C_ C_ 0.999445 0.0966762 0.56969 0.0
C_ C_ 0.763715 0.157225 0.989051 0.0
C_ C_ 0.749875 0.12753 0.507008 0.0
C_ C_ 0.725461 0.132198 0.534798 0.0
C_ C_ 0.713699 0.166644 0.543627 0.0
C_ C_ 0.727456 0.195648 0.524758 0.0
C_ C_ 0.894653 0.210002 0.977052 0.0
C_ C_ 0.904014 0.179229 0.957483 0.0
C_ C_ 0.95148 0.161178 0.960019 0.0
C_ C_ 0.960415 0.132648 0.940542 0.0
C_ C_ 0.918896 0.11949 0.921853 0.0
C_ C_ 0.872534 0.136727 0.919669 0.0
C_ C_ 0.866599 0.168426 0.935219 0.0
C_ C_ 0.851898 0.129281 0.891473 0.0
C_ C_ 0.924449 0.101402 0.895016 0.0
C_ C_ 0.835724 0.0197024 0.842092 0.0
C_ C_ 0.860926 0.044377 0.861814 0.0
C_ C_ 0.861855 0.0809681 0.855206 0.0
C_ C_ 0.836823 0.0919345 0.829027 0.0
C_ C_ 0.813523 0.0663441 0.809394 0.0
C_ C_ 0.698628 0.21377 0.917278 0.0
C_ C_ 0.667933 0.205274 0.889664 0.0
C_ C_ 0.948927 0.216227 0.886493 0.0
C_ C_ 0.91998 0.208221 0.860068 0.0
C_ C_ 0.945562 0.192891 0.835956 0.0
C_ C_ 0.663388 0.181971 0.838977 0.0
C_ C_ 0.690729 0.18621 0.866129 0.0
C_ C_ 0.92031 0.170597 0.814863 0.0
C_ C_ 0.667221 0.153324 0.81969 0.0
C_ C_ 0.902952 0.0927748 0.739051 0.0
C_ C_ 0.916792 0.12247 0.757008 0.0
C_ C_ 0.941206 0.117802 0.784798 0.0
C_ C_ 0.952968 0.0833558 0.793627 0.0
C_ C_ 0.93921 0.0543523 0.774758 0.0
C_ C_ 0.894653 0.460002 0.772948 0.0
C_ C_ 0.904014 0.429229 0.792517 0.0
C_ C_ 0.95148 0.411178 0.789981 0.0
C_ C_ 0.960415 0.382648 0.809458 0.0
C_ C_ 0.918896 0.36949 0.828147 0.0
C_ C_ 0.872534 0.386727 0.830331 0.0
C_ C_ 0.866599 0.418426 0.814781 0.0
C_ C_ 0.851898 0.379281 0.858527 0.0
C_ C_ 0.924449 0.351402 0.854984 0.0
C_ C_ 0.835724 0.269702 0.907908 0.0
C_ C_ 0.860926 0.294377 0.888186 0.0
C_ C_ 0.861855 0.330968 0.894794 0.0
C_ C_ 0.836823 0.341934 0.920973 0.0
C_ C_ 0.813523 0.316344 0.940606 0.0
C_ C_ 0.698628 0.46377 0.832722 0.0
C_ C_ 0.667933 0.455274 0.860336 0.0
C_ C_ 0.948927 0.466227 0.863507 0.0
C_ C_ 0.91998 0.458221 0.889932 0.0
C_ C_ 0.945562 0.442891 0.914044 0.0
C_ C_ 0.663388 0.431971 0.911023 0.0
C_ C_ 0.690729 0.43621 0.883871 0.0
C_ C_ 0.92031 0.420597 0.935137 0.0
C_ C_ 0.667221 0.403324 0.93031 0.0
C_ C_ 0.902952 0.342775 0.510949 0.0
C_ C_ 0.916792 0.37247 0.992992 0.0
C_ C_ 0.941206 0.367802 0.965202 0.0
C_ C_ 0.952968 0.333356 0.956373 0.0
C_ C_ 0.93921 0.304352 0.975242 0.0
C_ C_ 0.772014 0.289998 0.522948 0.0
C_ C_ 0.762653 0.320771 0.542517 0.0
C_ C_ 0.715187 0.338822 0.539981 0.0
C_ C_ 0.706251 0.367352 0.559458 0.0
C_ C_ 0.747771 0.38051 0.578147 0.0
C_ C_ 0.794133 0.363273 0.580331 0.0
C_ C_ 0.800068 0.331574 0.564781 0.0
C_ C_ 0.814769 0.370719 0.608527 0.0
C_ C_ 0.742217 0.398598 0.604984 0.0
C_ C_ 0.830943 0.480298 0.657908 0.0
C_ C_ 0.80574 0.455623 0.638186 0.0
C_ C_ 0.804812 0.419032 0.644794 0.0
C_ C_ 0.829843 0.408066 0.670973 0.0
C_ C_ 0.853144 0.433656 0.690606 0.0
C_ C_ 0.968039 0.28623 0.582722 0.0
C_ C_ 0.998734 0.294726 0.610336 0.0
C_ C_ 0.717739 0.283773 0.613507 0.0
C_ C_ 0.746686 0.291779 0.639932 0.0
C_ C_ 0.721104 0.307109 0.664044 0.0
C_ C_ 0.00327863 0.318029 0.661023 0.0
C_ C_ 0.975938 0.31379 0.633871 0.0
C_ C_ 0.746357 0.329403 0.685137 0.0
C_ C_ 0.999445 0.346676 0.68031 0.0
C_ C_ 0.763715 0.407225 0.760949 0.0
C_ C_ 0.749875 0.37753 0.742992 0.0
C_ C_ 0.725461 0.382198 0.715202 0.0
C_ C_ 0.713699 0.416644 0.706373 0.0
C_ C_ 0.727456 0.445648 0.725242 0.0
N_ N_ 0.852935 0.219087 0.566102 0.0
N_ N_ 0.783611 0.142872 0.626543 0.0
N_ N_ 0.711527 0.101806 0.55365 0.0
N_ N_ 0.754235 0.190701 0.4986 0.0
N_ N_ 0.813732 0.030913 0.816102 0.0
N_ N_ 0.883056 0.107128 0.876543 0.0
N_ N_ 0.95514 0.148194 0.80365 0.0
N_ N_ 0.912431 0.0592986 0.7486 0.0
N_ N_ 0.813732 0.280913 0.933898 0.0
N_ N_ 0.883056 0.357128 0.873457 0.0
N_ N_ 0.95514 0.398194 0.94635 0.0
N_ N_ 0.912431 0.309299 0.00139979 0.0
N_ N_ 0.852935 0.469087 0.683898 0.0
N_ N_ 0.783611 0.392872 0.623457 0.0
N_ N_ 0.711527 0.351806 0.69635 0.0
N_ N_ 0.754235 0.440701 0.7514 0.0
O_ O_ 0.79885 0.0149975 0.717173 0.0
O_ O_ 0.743984 0.0344756 0.750578 0.0
O_ O_ 0.695457 0.155721 0.634274 0.0
O_ O_ 0.865986 0.120132 0.63586 0.0
O_ O_ 0.925653 0.0510577 0.672831 0.0
O_ O_ 0.978891 0.0105991 0.684197 0.0
O_ O_ 0.95354 0.105994 0.559287 0.0
O_ O_ 0.78749 0.0699826 0.549288 0.0
O_ O_ 0.867816 0.235003 0.967173 0.0
O_ O_ 0.922682 0.215524 0.500578 0.0
O_ O_ 0.97121 0.094279 0.884274 0.0
O_ O_ 0.80068 0.129868 0.88586 0.0
O_ O_ 0.741013 0.198942 0.922831 0.0
O_ O_ 0.687776 0.239401 0.934197 0.0
O_ O_ 0.713127 0.144006 0.809287 0.0
O_ O_ 0.879177 0.180017 0.799288 0.0
O_ O_ 0.867816 0.485003 0.782827 0.0
O_ O_ 0.922682 0.465524 0.749422 0.0
O_ O_ 0.97121 0.344279 0.865726 0.0
O_ O_ 0.80068 0.379868 0.86414 0.0
O_ O_ 0.741013 0.448942 0.827169 0.0
O_ O_ 0.687776 0.489401 0.815803 0.0
O_ O_ 0.713127 0.394006 0.940713 0.0
O_ O_ 0.879177 0.430017 0.950712 0.0
O_ O_ 0.79885 0.264997 0.532827 0.0
O_ O_ 0.743984 0.284476 0.999422 0.0
O_ O_ 0.695457 0.405721 0.615726 0.0
O_ O_ 0.865986 0.370132 0.61414 0.0
O_ O_ 0.925653 0.301058 0.577169 0.0
O_ O_ 0.978891 0.260599 0.565803 0.0
O_ O_ 0.95354 0.355994 0.690713 0.0
O_ O_ 0.78749 0.319983 0.700712 0.0
Cd Cd 0.896835 0.511719 0.21467 0.0
Cd Cd 0.769832 0.738281 0.46467 0.0
Cd Cd 0.769832 0.988281 0.28533 0.0
Cd Cd 0.896835 0.761719 0.0353296 0.0
H_ H_ 0.684627 0.579745 0.225897 0.0
H_ H_ 0.00143727 0.629013 0.190298 0.0
H_ H_ 0.832225 0.565178 0.179747 0.0
H_ H_ 0.833728 0.758413 0.0976618 0.0
H_ H_ 0.78881 0.714791 0.132561 0.0
H_ H_ 0.832514 0.629969 0.0743557 0.0
H_ H_ 0.872183 0.675225 0.0391002 0.0
H_ H_ 0.736312 0.52026 0.154784 0.0
H_ H_ 0.788447 0.536785 0.108694 0.0
H_ H_ 0.937697 0.574876 0.118937 0.0
H_ H_ 0.778699 0.653364 0.46672 0.0
H_ H_ 0.756465 0.600974 0.998905 0.0
H_ H_ 0.693888 0.670902 0.0648075 0.0
H_ H_ 0.714938 0.721767 0.0303887 0.0
H_ H_ 0.98204 0.670255 0.475897 0.0
H_ H_ 0.665229 0.620987 0.440298 0.0
H_ H_ 0.834442 0.684822 0.429747 0.0
H_ H_ 0.832939 0.991587 0.347662 0.0
H_ H_ 0.877857 0.535209 0.382561 0.0
H_ H_ 0.834153 0.620031 0.324356 0.0
H_ H_ 0.794483 0.574775 0.2891 0.0
H_ H_ 0.930355 0.72974 0.404784 0.0
H_ H_ 0.87822 0.713215 0.358694 0.0
H_ H_ 0.728969 0.675124 0.368937 0.0
H_ H_ 0.887968 0.596636 0.21672 0.0
H_ H_ 0.910202 0.649026 0.248905 0.0
H_ H_ 0.972779 0.579098 0.314808 0.0
H_ H_ 0.951728 0.528233 0.280389 0.0
H_ H_ 0.98204 0.920255 0.274103 0.0
H_ H_ 0.665229 0.870987 0.309702 0.0
H_ H_ 0.834442 0.934822 0.320253 0.0
H_ H_ 0.832939 0.741587 0.402338 0.0
H_ H_ 0.877857 0.785209 0.367439 0.0
H_ H_ 0.834153 0.870031 0.425644 0.0
H_ H_ 0.794483 0.824775 0.4609 0.0
H_ H_ 0.930355 0.97974 0.345216 0.0
H_ H_ 0.87822 0.963215 0.391306 0.0
H_ H_ 0.728969 0.925124 0.381063 0.0
H_ H_ 0.887968 0.846636 0.0332805 0.0
H_ H_ 0.910202 0.899026 0.501095 0.0
H_ H_ 0.972779 0.829098 0.435192 0.0
H_ H_ 0.951728 0.778233 0.469611 0.0
H_ H_ 0.684627 0.829745 0.0241033 0.0
H_ H_ 0.00143726 0.879013 0.0597022 0.0
H_ H_ 0.832225 0.815178 0.0702528 0.0
H_ H_ 0.833728 0.508413 0.152338 0.0
H_ H_ 0.78881 0.964791 0.117439 0.0
H_ H_ 0.832514 0.879969 0.175644 0.0
H_ H_ 0.872183 0.925225 0.2109 0.0
H_ H_ 0.736312 0.77026 0.0952161 0.0
H_ H_ 0.788447 0.786785 0.141306 0.0
H_ H_ 0.937697 0.824876 0.131063 0.0
H_ H_ 0.778699 0.903364 0.28328 0.0
H_ H_ 0.756465 0.850974 0.251095 0.0
H_ H_ 0.693888 0.920902 0.185192 0.0
H_ H_ 0.714938 0.971767 0.219611 0.0
C_ C_ 0.772014 0.539998 0.227052 0.0
C_ C_ 0.762653 0.570771 0.207483 0.0
C_ C_ 0.715187 0.588822 0.210019 0.0
C_ C_ 0.706251 0.617352 0.190542 0.0
C_ C_ 0.747771 0.63051 0.171853 0.0
C_ C_ 0.794133 0.613273 0.169669 0.0
C_ C_ 0.800068 0.581574 0.185219 0.0
C_ C_ 0.814769 0.620719 0.141473 0.0
C_ C_ 0.742217 0.648598 0.145016 0.0
C_ C_ 0.830943 0.730298 0.0920919 0.0
C_ C_ 0.80574 0.705623 0.111814 0.0
C_ C_ 0.804812 0.669032 0.105206 0.0
C_ C_ 0.829843 0.658066 0.0790275 0.0
C_ C_ 0.853144 0.683656 0.0593936 0.0
C_ C_ 0.968039 0.53623 0.167278 0.0
C_ C_ 0.998734 0.544726 0.139664 0.0
C_ C_ 0.717739 0.533773 0.136493 0.0
C_ C_ 0.746686 0.541779 0.110068 0.0
C_ C_ 0.721104 0.557109 0.0859562 0.0
C_ C_ 0.00327863 0.568029 0.0889766 0.0
C_ C_ 0.975938 0.56379 0.116129 0.0
C_ C_ 0.746357 0.579403 0.0648629 0.0
C_ C_ 0.999445 0.596676 0.0696897 0.0
C_ C_ 0.763715 0.657225 0.489051 0.0
C_ C_ 0.749875 0.62753 0.00700845 0.0
C_ C_ 0.725461 0.632198 0.0347975 0.0
C_ C_ 0.713699 0.666644 0.0436273 0.0
C_ C_ 0.727456 0.695648 0.0247575 0.0
C_ C_ 0.894653 0.710002 0.477052 0.0
C_ C_ 0.904014 0.679229 0.457483 0.0
C_ C_ 0.95148 0.661178 0.460019 0.0
C_ C_ 0.960415 0.632648 0.440542 0.0
C_ C_ 0.918896 0.61949 0.421853 0.0
C_ C_ 0.872534 0.636727 0.419669 0.0
C_ C_ 0.866599 0.668426 0.435219 0.0
C_ C_ 0.851898 0.629281 0.391473 0.0
C_ C_ 0.924449 0.601402 0.395016 0.0
C_ C_ 0.835724 0.519702 0.342092 0.0
C_ C_ 0.860926 0.544377 0.361814 0.0
C_ C_ 0.861855 0.580968 0.355206 0.0
C_ C_ 0.836823 0.591934 0.329027 0.0
C_ C_ 0.813523 0.566344 0.309394 0.0
C_ C_ 0.698628 0.71377 0.417278 0.0
C_ C_ 0.667933 0.705274 0.389664 0.0
C_ C_ 0.948927 0.716227 0.386493 0.0
C_ C_ 0.91998 0.708221 0.360068 0.0
C_ C_ 0.945562 0.692891 0.335956 0.0
C_ C_ 0.663388 0.681971 0.338977 0.0
C_ C_ 0.690729 0.68621 0.366129 0.0
C_ C_ 0.92031 0.670597 0.314863 0.0
C_ C_ 0.667221 0.653324 0.31969 0.0
C_ C_ 0.902952 0.592775 0.239051 0.0
C_ C_ 0.916792 0.62247 0.257008 0.0
C_ C_ 0.941206 0.617802 0.284798 0.0
C_ C_ 0.952968 0.583356 0.293627 0.0
C_ C_ 0.93921 0.554352 0.274758 0.0
C_ C_ 0.894653 0.960002 0.272948 0.0
C_ C_ 0.904014 0.929229 0.292517 0.0
C_ C_ 0.95148 0.911178 0.289981 0.0
C_ C_ 0.960415 0.882648 0.309458 0.0
C_ C_ 0.918896 0.86949 0.328147 0.0
C_ C_ 0.872534 0.886727 0.330331 0.0
C_ C_ 0.866599 0.918426 0.314781 0.0
C_ C_ 0.851898 0.879281 0.358527 0.0
C_ C_ 0.924449 0.851402 0.354984 0.0
C_ C_ 0.835724 0.769702 0.407908 0.0
C_ C_ 0.860926 0.794377 0.388186 0.0
C_ C_ 0.861855 0.830968 0.394794 0.0
C_ C_ 0.836823 0.841934 0.420973 0.0
C_ C_ 0.813523 0.816344 0.440606 0.0
C_ C_ 0.698628 0.96377 0.332722 0.0
C_ C_ 0.667933 0.955274 0.360336 0.0
C_ C_ 0.948927 0.966227 0.363507 0.0
C_ C_ 0.91998 0.958221 0.389932 0.0
C_ C_ 0.945562 0.942891 0.414044 0.0
C_ C_ 0.663388 0.931971 0.411023 0.0
C_ C_ 0.690729 0.93621 0.383871 0.0
C_ C_ 0.92031 0.920597 0.435137 0.0
C_ C_ 0.667221 0.903324 0.43031 0.0
C_ C_ 0.902952 0.842775 0.010949 0.0
C_ C_ 0.916792 0.87247 0.492992 0.0
C_ C_ 0.941206 0.867802 0.465202 0.0
C_ C_ 0.952968 0.833356 0.456373 0.0
C_ C_ 0.93921 0.804352 0.475242 0.0
C_ C_ 0.772014 0.789998 0.0229477 0.0
C_ C_ 0.762653 0.820771 0.0425173 0.0
C_ C_ 0.715187 0.838822 0.0399812 0.0
C_ C_ 0.706251 0.867352 0.0594584 0.0
C_ C_ 0.747771 0.88051 0.0781469 0.0
C_ C_ 0.794133 0.863273 0.0803307 0.0
C_ C_ 0.800068 0.831574 0.0647812 0.0
C_ C_ 0.814769 0.870719 0.108527 0.0
C_ C_ 0.742217 0.898598 0.104984 0.0
C_ C_ 0.830943 0.980298 0.157908 0.0
C_ C_ 0.80574 0.955623 0.138186 0.0
C_ C_ 0.804812 0.919032 0.144794 0.0
C_ C_ 0.829843 0.908066 0.170973 0.0
C_ C_ 0.853144 0.933656 0.190606 0.0
C_ C_ 0.968039 0.78623 0.0827219 0.0
C_ C_ 0.998734 0.794726 0.110336 0.0
C_ C_ 0.717739 0.783773 0.113507 0.0
C_ C_ 0.746686 0.791779 0.139932 0.0
C_ C_ 0.721104 0.807109 0.164044 0.0
C_ C_ 0.00327862 0.818029 0.161023 0.0
C_ C_ 0.975938 0.81379 0.133871 0.0
C_ C_ 0.746357 0.829403 0.185137 0.0
C_ C_ 0.999445 0.846676 0.18031 0.0
C_ C_ 0.763715 0.907225 0.260949 0.0
C_ C_ 0.749875 0.87753 0.242992 0.0
C_ C_ 0.725461 0.882198 0.215202 0.0
C_ C_ 0.713699 0.916644 0.206373 0.0
C_ C_ 0.727456 0.945648 0.225242 0.0
N_ N_ 0.852935 0.719087 0.066102 0.0
N_ N_ 0.783611 0.642872 0.126543 0.0
N_ N_ 0.711527 0.601806 0.0536496 0.0
N_ N_ 0.754235 0.690701 0.9986 0.0
N_ N_ 0.813732 0.530913 0.316102 0.0
N_ N_ 0.883056 0.607128 0.376543 0.0
N_ N_ 0.95514 0.648194 0.30365 0.0
N_ N_ 0.912431 0.559299 0.2486 0.0
N_ N_ 0.813732 0.780913 0.433898 0.0
N_ N_ 0.883056 0.857128 0.373457 0.0
N_ N_ 0.95514 0.898194 0.44635 0.0
N_ N_ 0.912431 0.809299 0.5014 0.0
N_ N_ 0.852935 0.969087 0.183898 0.0
N_ N_ 0.783611 0.892872 0.123457 0.0
N_ N_ 0.711527 0.851806 0.19635 0.0
N_ N_ 0.754235 0.940701 0.2514 0.0
O_ O_ 0.79885 0.514997 0.217173 0.0
O_ O_ 0.743984 0.534476 0.250578 0.0
O_ O_ 0.695457 0.655721 0.134274 0.0
O_ O_ 0.865986 0.620132 0.13586 0.0
O_ O_ 0.925653 0.551058 0.172831 0.0
O_ O_ 0.978891 0.510599 0.184197 0.0
O_ O_ 0.95354 0.605994 0.059287 0.0
O_ O_ 0.78749 0.569983 0.0492879 0.0
O_ O_ 0.867816 0.735003 0.467173 0.0
O_ O_ 0.922682 0.715524 0.000578323 0.0
O_ O_ 0.97121 0.594279 0.384274 0.0
O_ O_ 0.80068 0.629868 0.38586 0.0
O_ O_ 0.741013 0.698942 0.422831 0.0
O_ O_ 0.687776 0.739401 0.434197 0.0
O_ O_ 0.713127 0.644007 0.309287 0.0
O_ O_ 0.879177 0.680017 0.299288 0.0
O_ O_ 0.867816 0.985003 0.282827 0.0
O_ O_ 0.922682 0.965524 0.249422 0.0
O_ O_ 0.97121 0.844279 0.365726 0.0
O_ O_ 0.80068 0.879868 0.36414 0.0
O_ O_ 0.741013 0.948942 0.327169 0.0
O_ O_ 0.687776 0.989401 0.315803 0.0
O_ O_ 0.713127 0.894007 0.440713 0.0
O_ O_ 0.879177 0.930017 0.450712 0.0
O_ O_ 0.79885 0.764997 0.032827 0.0
O_ O_ 0.743984 0.784476 0.499422 0.0
O_ O_ 0.695457 0.905721 0.115726 0.0
O_ O_ 0.865986 0.870132 0.11414 0.0
O_ O_ 0.925653 0.801058 0.0771694 0.0
O_ O_ 0.978891 0.760599 0.0658027 0.0
O_ O_ 0.95354 0.855994 0.190713 0.0
O_ O_ 0.78749 0.819983 0.200712 0.0
Cd Cd 0.896835 0.511719 0.71467 0.0
Cd Cd 0.769832 0.738281 0.96467 0.0
Cd Cd 0.769832 0.988281 0.78533 0.0
Cd Cd 0.896835 0.761719 0.53533 0.0
H_ H_ 0.684627 0.579745 0.725897 0.0
H_ H_ 0.00143727 0.629013 0.690298 0.0
H_ H_ 0.832225 0.565178 0.679747 0.0
H_ H_ 0.833728 0.758413 0.597662 0.0
H_ H_ 0.78881 0.714791 0.632561 0.0
H_ H_ 0.832514 0.629969 0.574356 0.0
H_ H_ 0.872183 0.675225 0.5391 0.0
H_ H_ 0.736312 0.52026 0.654784 0.0
H_ H_ 0.788447 0.536785 0.608694 0.0
H_ H_ 0.937697 0.574876 0.618937 0.0
H_ H_ 0.778699 0.653364 0.96672 0.0
H_ H_ 0.756465 0.600974 0.498905 0.0
H_ H_ 0.693888 0.670902 0.564808 0.0
H_ H_ 0.714938 0.721767 0.530389 0.0
H_ H_ 0.98204 0.670255 0.975897 0.0
H_ H_ 0.665229 0.620987 0.940298 0.0
H_ H_ 0.834442 0.684822 0.929747 0.0
H_ H_ 0.832939 0.991587 0.847662 0.0
H_ H_ 0.877857 0.535209 0.882561 0.0
H_ H_ 0.834153 0.620031 0.824356 0.0
H_ H_ 0.794483 0.574775 0.7891 0.0
H_ H_ 0.930355 0.72974 0.904784 0.0
H_ H_ 0.87822 0.713215 0.858694 0.0
H_ H_ 0.728969 0.675124 0.868937 0.0
H_ H_ 0.887968 0.596636 0.71672 0.0
H_ H_ 0.910202 0.649026 0.748905 0.0
H_ H_ 0.972779 0.579098 0.814808 0.0
H_ H_ 0.951728 0.528233 0.780389 0.0
H_ H_ 0.98204 0.920255 0.774103 0.0
H_ H_ 0.665229 0.870987 0.809702 0.0
H_ H_ 0.834442 0.934822 0.820253 0.0
H_ H_ 0.832939 0.741587 0.902338 0.0
H_ H_ 0.877857 0.785209 0.867439 0.0
H_ H_ 0.834153 0.870031 0.925644 0.0
H_ H_ 0.794483 0.824775 0.9609 0.0
H_ H_ 0.930355 0.97974 0.845216 0.0
H_ H_ 0.87822 0.963215 0.891306 0.0
H_ H_ 0.728969 0.925124 0.881063 0.0
H_ H_ 0.887968 0.846636 0.53328 0.0
H_ H_ 0.910202 0.899026 0.00109454 0.0
H_ H_ 0.972779 0.829098 0.935192 0.0
H_ H_ 0.951728 0.778233 0.969611 0.0
H_ H_ 0.684627 0.829745 0.524103 0.0
H_ H_ 0.00143726 0.879013 0.559702 0.0
H_ H_ 0.832225 0.815178 0.570253 0.0
H_ H_ 0.833728 0.508413 0.652338 0.0
H_ H_ 0.78881 0.964791 0.617439 0.0
H_ H_ 0.832514 0.879969 0.675644 0.0
H_ H_ 0.872183 0.925225 0.7109 0.0
H_ H_ 0.736312 0.77026 0.595216 0.0
H_ H_ 0.788447 0.786785 0.641306 0.0
H_ H_ 0.937697 0.824876 0.631063 0.0
H_ H_ 0.778699 0.903364 0.78328 0.0
H_ H_ 0.756465 0.850974 0.751095 0.0
H_ H_ 0.693888 0.920902 0.685192 0.0
H_ H_ 0.714938 0.971767 0.719611 0.0
C_ C_ 0.772014 0.539998 0.727052 0.0
C_ C_ 0.762653 0.570771 0.707483 0.0
C_ C_ 0.715187 0.588822 0.710019 0.0
C_ C_ 0.706251 0.617352 0.690542 0.0
C_ C_ 0.747771 0.63051 0.671853 0.0
C_ C_ 0.794133 0.613273 0.669669 0.0
C_ C_ 0.800068 0.581574 0.685219 0.0
C_ C_ 0.814769 0.620719 0.641473 0.0
C_ C_ 0.742217 0.648598 0.645016 0.0
C_ C_ 0.830943 0.730298 0.592092 0.0
C_ C_ 0.80574 0.705623 0.611814 0.0
C_ C_ 0.804812 0.669032 0.605206 0.0
C_ C_ 0.829843 0.658066 0.579027 0.0
C_ C_ 0.853144 0.683656 0.559394 0.0
C_ C_ 0.968039 0.53623 0.667278 0.0
C_ C_ 0.998734 0.544726 0.639664 0.0
C_ C_ 0.717739 0.533773 0.636493 0.0
C_ C_ 0.746686 0.541779 0.610068 0.0
C_ C_ 0.721104 0.557109 0.585956 0.0
C_ C_ 0.00327863 0.568029 0.588977 0.0
C_ C_ 0.975938 0.56379 0.616129 0.0
C_ C_ 0.746357 0.579403 0.564863 0.0
C_ C_ 0.999445 0.596676 0.56969 0.0
C_ C_ 0.763715 0.657225 0.989051 0.0
C_ C_ 0.749875 0.62753 0.507008 0.0
C_ C_ 0.725461 0.632198 0.534798 0.0
C_ C_ 0.713699 0.666644 0.543627 0.0
C_ C_ 0.727456 0.695648 0.524758 0.0
C_ C_ 0.894653 0.710002 0.977052 0.0
C_ C_ 0.904014 0.679229 0.957483 0.0
C_ C_ 0.95148 0.661178 0.960019 0.0
C_ C_ 0.960415 0.632648 0.940542 0.0
C_ C_ 0.918896 0.61949 0.921853 0.0
C_ C_ 0.872534 0.636727 0.919669 0.0
C_ C_ 0.866599 0.668426 0.935219 0.0
C_ C_ 0.851898 0.629281 0.891473 0.0
C_ C_ 0.924449 0.601402 0.895016 0.0
C_ C_ 0.835724 0.519702 0.842092 0.0
C_ C_ 0.860926 0.544377 0.861814 0.0
C_ C_ 0.861855 0.580968 0.855206 0.0
C_ C_ 0.836823 0.591934 0.829027 0.0
C_ C_ 0.813523 0.566344 0.809394 0.0
C_ C_ 0.698628 0.71377 0.917278 0.0
C_ C_ 0.667933 0.705274 0.889664 0.0
C_ C_ 0.948927 0.716227 0.886493 0.0
C_ C_ 0.91998 0.708221 0.860068 0.0
C_ C_ 0.945562 0.692891 0.835956 0.0
C_ C_ 0.663388 0.681971 0.838977 0.0
C_ C_ 0.690729 0.68621 0.866129 0.0
C_ C_ 0.92031 0.670597 0.814863 0.0
C_ C_ 0.667221 0.653324 0.81969 0.0
C_ C_ 0.902952 0.592775 0.739051 0.0
C_ C_ 0.916792 0.62247 0.757008 0.0
C_ C_ 0.941206 0.617802 0.784798 0.0
C_ C_ 0.952968 0.583356 0.793627 0.0
C_ C_ 0.93921 0.554352 0.774758 0.0
C_ C_ 0.894653 0.960002 0.772948 0.0
C_ C_ 0.904014 0.929229 0.792517 0.0
C_ C_ 0.95148 0.911178 0.789981 0.0
C_ C_ 0.960415 0.882648 0.809458 0.0
C_ C_ 0.918896 0.86949 0.828147 0.0
C_ C_ 0.872534 0.886727 0.830331 0.0
C_ C_ 0.866599 0.918426 0.814781 0.0
C_ C_ 0.851898 0.879281 0.858527 0.0
C_ C_ 0.924449 0.851402 0.854984 0.0
C_ C_ 0.835724 0.769702 0.907908 0.0
C_ C_ 0.860926 0.794377 0.888186 0.0
C_ C_ 0.861855 0.830968 0.894794 0.0
C_ C_ 0.836823 0.841934 0.920973 0.0
C_ C_ 0.813523 0.816344 0.940606 0.0
C_ C_ 0.698628 0.96377 0.832722 0.0
C_ C_ 0.667933 0.955274 0.860336 0.0
C_ C_ 0.948927 0.966227 0.863507 0.0
C_ C_ 0.91998 0.958221 0.889932 0.0
C_ C_ 0.945562 0.942891 0.914044 0.0
C_ C_ 0.663388 0.931971 0.911023 0.0
C_ C_ 0.690729 0.93621 0.883871 0.0
C_ C_ 0.92031 0.920597 0.935137 0.0
C_ C_ 0.667221 0.903324 0.93031 0.0
C_ C_ 0.902952 0.842775 0.510949 0.0
C_ C_ 0.916792 0.87247 0.992992 0.0
C_ C_ 0.941206 0.867802 0.965202 0.0
C_ C_ 0.952968 0.833356 0.956373 0.0
C_ C_ 0.93921 0.804352 0.975242 0.0
C_ C_ 0.772014 0.789998 0.522948 0.0
C_ C_ 0.762653 0.820771 0.542517 0.0
C_ C_ 0.715187 0.838822 0.539981 0.0
C_ C_ 0.706251 0.867352 0.559458 0.0
C_ C_ 0.747771 0.88051 0.578147 0.0
C_ C_ 0.794133 0.863273 0.580331 0.0
C_ C_ 0.800068 0.831574 0.564781 0.0
C_ C_ 0.814769 0.870719 0.608527 0.0
C_ C_ 0.742217 0.898598 0.604984 0.0
C_ C_ 0.830943 0.980298 0.657908 0.0
C_ C_ 0.80574 0.955623 0.638186 0.0
C_ C_ 0.804812 0.919032 0.644794 0.0
C_ C_ 0.829843 0.908066 0.670973 0.0
C_ C_ 0.853144 0.933656 0.690606 0.0
C_ C_ 0.968039 0.78623 0.582722 0.0
C_ C_ 0.998734 0.794726 0.610336 0.0
C_ C_ 0.717739 0.783773 0.613507 0.0
C_ C_ 0.746686 0.791779 0.639932 0.0
C_ C_ 0.721104 0.807109 0.664044 0.0
C_ C_ 0.00327862 0.818029 0.661023 0.0
C_ C_ 0.975938 0.81379 0.633871 0.0
C_ C_ 0.746357 0.829403 0.685137 0.0
C_ C_ 0.999445 0.846676 0.68031 0.0
C_ C_ 0.763715 0.907225 0.760949 0.0
C_ C_ 0.749875 0.87753 0.742992 0.0
C_ C_ 0.725461 0.882198 0.715202 0.0
C_ C_ 0.713699 0.916644 0.706373 0.0
C_ C_ 0.727456 0.945648 0.725242 0.0
N_ N_ 0.852935 0.719087 0.566102 0.0
N_ N_ 0.783611 0.642872 0.626543 0.0
N_ N_ 0.711527 0.601806 0.55365 0.0
N_ N_ 0.754235 0.690701 0.4986 0.0
N_ N_ 0.813732 0.530913 0.816102 0.0
N_ N_ 0.883056 0.607128 0.876543 0.0
N_ N_ 0.95514 0.648194 0.80365 0.0
N_ N_ 0.912431 0.559299 0.7486 0.0
N_ N_ 0.813732 0.780913 0.933898 0.0
N_ N_ 0.883056 0.857128 0.873457 0.0
N_ N_ 0.95514 0.898194 0.94635 0.0
N_ N_ 0.912431 0.809299 0.00139979 0.0
N_ N_ 0.852935 0.969087 0.683898 0.0
N_ N_ 0.783611 0.892872 0.623457 0.0
N_ N_ 0.711527 0.851806 0.69635 0.0
N_ N_ 0.754235 0.940701 0.7514 0.0
O_ O_ 0.79885 0.514997 0.717173 0.0
O_ O_ 0.743984 0.534476 0.750578 0.0
O_ O_ 0.695457 0.655721 0.634274 0.0
O_ O_ 0.865986 0.620132 0.63586 0.0
O_ O_ 0.925653 0.551058 0.672831 0.0
O_ O_ 0.978891 0.510599 0.684197 0.0
O_ O_ 0.95354 0.605994 0.559287 0.0
O_ O_ 0.78749 0.569983 0.549288 0.0
O_ O_ 0.867816 0.735003 0.967173 0.0
O_ O_ 0.922682 0.715524 0.500578 0.0
O_ O_ 0.97121 0.594279 0.884274 0.0
O_ O_ 0.80068 0.629868 0.88586 0.0
O_ O_ 0.741013 0.698942 0.922831 0.0
O_ O_ 0.687776 0.739401 0.934197 0.0
O_ O_ 0.713127 0.644007 0.809287 0.0
O_ O_ 0.879177 0.680017 0.799288 0.0
O_ O_ 0.867816 0.985003 0.782827 0.0
O_ O_ 0.922682 0.965524 0.749422 0.0
O_ O_ 0.97121 0.844279 0.865726 0.0
O_ O_ 0.80068 0.879868 0.86414 0.0
O_ O_ 0.741013 0.948942 0.827169 0.0
O_ O_ 0.687776 0.989401 0.815803 0.0
O_ O_ 0.713127 0.894007 0.940713 0.0
O_ O_ 0.879177 0.930017 0.950712 0.0
O_ O_ 0.79885 0.764997 0.532827 0.0
O_ O_ 0.743984 0.784476 0.999422 0.0
O_ O_ 0.695457 0.905721 0.615726 0.0
O_ O_ 0.865986 0.870132 0.61414 0.0
O_ O_ 0.925653 0.801058 0.577169 0.0
O_ O_ 0.978891 0.760599 0.565803 0.0
O_ O_ 0.95354 0.855994 0.690713 0.0
O_ O_ 0.78749 0.819983 0.700712 0.0
