_cell_length_a 25.179
_cell_length_b 37.484199844079754
_cell_length_c 44.4702
_cell_angle_alpha 90.0
_cell_angle_beta 90.0
_cell_angle_gamma 94.03100043039683
_symmetry_space_group_name_H-M         'P 1'
_symmetry_Int_Tables_number            1
loop_
_symmetry_equiv_pos_as_xyz
   'x, y, z'
                         
loop_
_atom_site_label
_atom_site_type_symbol
_atom_site_fract_x 
_atom_site_fract_y
_atom_site_fract_z
_atom_site_charge
Cd Cd 0.227823 0.016543 0.213137 0.0
Cd Cd 0.106251 0.236564 0.4633 0.0
Cd Cd 0.101661 0.48953 0.28467 0.0
Cd Cd 0.230107 0.263488 0.0394064 0.0
H_ H_ 0.0099055 0.077932 0.223896 0.0
H_ H_ 0.345454 0.138083 0.194588 0.0
H_ H_ 0.163168 0.0661005 0.18702 0.0
H_ H_ 0.17592 0.26584 0.10558 0.0
H_ H_ 0.151513 0.222395 0.145468 0.0
H_ H_ 0.166765 0.138268 0.085507 0.0
H_ H_ 0.206324 0.179604 0.048727 0.0
H_ H_ 0.066824 0.0184436 0.153755 0.0
H_ H_ 0.119813 0.0336579 0.106443 0.0
H_ H_ 0.260204 0.0763014 0.118508 0.0
H_ H_ 0.113683 0.149393 0.466739 0.0
H_ H_ 0.0881101 0.10064 0.999338712 0.0
H_ H_ 0.0313177 0.17351 0.066212 0.0
H_ H_ 0.0488083 0.22209 0.0303862 0.0
H_ H_ 0.299799 0.167511 0.489796 0.0
H_ H_ 0.999365 0.121107 0.439773 0.0
H_ H_ 0.179951 0.189922 0.425982 0.0
H_ H_ 0.14518 0.493472 0.354366 0.0
H_ H_ 0.187048 0.0280606 0.398224 0.0
H_ H_ 0.213466 0.10999 0.330488 0.0
H_ H_ 0.163728 0.0712897 0.295352 0.0
H_ H_ 0.263142 0.236152 0.40096 0.0
H_ H_ 0.215784 0.223964 0.353934 0.0
H_ H_ 0.0665305 0.180282 0.366339 0.0
H_ H_ 0.229627 0.105249 0.208206 0.0
H_ H_ 0.249782 0.158093 0.24098 0.0
H_ H_ 0.305087 0.0888652 0.307897 0.0
H_ H_ 0.281035 0.0375653 0.277075 0.0
H_ H_ 0.260944 0.393394 0.252143 0.0
H_ H_ 0.993902 0.366893 0.305885 0.0
H_ H_ 0.200863 0.446867 0.332186 0.0
H_ H_ 0.161832 0.320273 0.464232 0.0
H_ H_ 0.209172 0.366505 0.430919 0.0
H_ H_ 0.180409 0.291737 0.357008 0.0
H_ H_ 0.133363 0.245863 0.392681 0.0
H_ H_ 0.27271 0.483253 0.35837 0.0
H_ H_ 0.235835 0.473397 0.409984 0.0
H_ H_ 0.0652872 0.431379 0.383497 0.0
H_ H_ 0.219499 0.347664 0.0359597 0.0
H_ H_ 0.281915 0.408377 0.51676 0.0
H_ H_ 0.325431 0.338823 0.443608 0.0
H_ H_ 0.289491 0.287218 0.471128 0.0
H_ H_ 0.024868 0.335771 0.0198111 0.0
H_ H_ 0.334535 0.374945 0.063164 0.0
H_ H_ 0.171244 0.316947 0.0683053 0.0
H_ H_ 0.163585 0.0136643 0.152697 0.0
H_ H_ 0.17367 0.472083 0.102144 0.0
H_ H_ 0.147472 0.391465 0.168558 0.0
H_ H_ 0.182997 0.43529 0.207003 0.0
H_ H_ 0.0726912 0.273944 0.0940336 0.0
H_ H_ 0.119953 0.285517 0.140256 0.0
H_ H_ 0.271085 0.332382 0.132087 0.0
H_ H_ 0.117139 0.404473 0.283779 0.0
H_ H_ 0.113838 0.354184 0.247548 0.0
H_ H_ 0.0385063 0.420783 0.184046 0.0
H_ H_ 0.0417489 0.469826 0.223569 0.0
C_ C_ 0.101689 0.0420827 0.233351 0.0
C_ C_ 0.0890244 0.0678694 0.208911 0.0
C_ C_ 0.0429151 0.0856915 0.209391 0.0
C_ C_ 0.0321706 0.112727 0.187666 0.0
C_ C_ 0.0663431 0.116355 0.163419 0.0
C_ C_ 0.114034 0.100633 0.16365 0.0
C_ C_ 0.128351 0.0775505 0.186654 0.0
C_ C_ 0.14975 0.125238 0.150491 0.0
C_ C_ 0.0736485 0.148875 0.146394 0.0
C_ C_ 0.170252 0.236995 0.0999893 0.0
C_ C_ 0.153038 0.213706 0.122698 0.0
C_ C_ 0.147729 0.178059 0.117681 0.0
C_ C_ 0.166048 0.165286 0.0896883 0.0
C_ C_ 0.190136 0.189025 0.0685866 0.0
C_ C_ 0.292979 0.0340819 0.16396 0.0
C_ C_ 0.320123 0.0408468 0.134758 0.0
C_ C_ 0.0490445 0.0315281 0.135778 0.0
C_ C_ 0.0790597 0.0400334 0.108699 0.0
C_ C_ 0.0553087 0.0581776 0.0859047 0.0
C_ C_ 0.319818 0.0677202 0.0861629 0.0
C_ C_ 0.29664 0.0634774 0.112808 0.0
C_ C_ 0.0814612 0.0820114 0.0670565 0.0
C_ C_ 0.318274 0.0974627 0.068392 0.0
C_ C_ 0.102264 0.15451 0.489629 0.0
C_ C_ 0.0816103 0.128083 0.0078416 0.0
C_ C_ 0.0588178 0.133568 0.0360205 0.0
C_ C_ 0.0518259 0.168757 0.0453214 0.0
C_ C_ 0.0620163 0.197093 0.025499 0.0
C_ C_ 0.23256 0.215611 0.476662 0.0
C_ C_ 0.234069 0.179523 0.463178 0.0
C_ C_ 0.271875 0.155624 0.473462 0.0
C_ C_ 0.281332 0.123754 0.457756 0.0
C_ C_ 0.246324 0.113672 0.4348 0.0
C_ C_ 0.209358 0.137057 0.423805 0.0
C_ C_ 0.206284 0.171713 0.435651 0.0
C_ C_ 0.198443 0.127627 0.396161 0.0
C_ C_ 0.251479 0.0889353 0.412818 0.0
C_ C_ 0.158994 0.0142764 0.352188 0.0
C_ C_ 0.184263 0.0377886 0.373656 0.0
C_ C_ 0.202943 0.0718074 0.366651 0.0
C_ C_ 0.196464 0.0830239 0.337062 0.0
C_ C_ 0.172798 0.0601117 0.316532 0.0
C_ C_ 0.0315151 0.212657 0.417581 0.0
C_ C_ 0.00176 0.205459 0.389901 0.0
C_ C_ 0.280386 0.21902 0.383496 0.0
C_ C_ 0.25455 0.213595 0.355892 0.0
C_ C_ 0.280858 0.200311 0.332002 0.0
C_ C_ 0.997814 0.183118 0.337595 0.0
C_ C_ 0.0286321 0.190343 0.363336 0.0
C_ C_ 0.257872 0.180753 0.308018 0.0
C_ C_ 0.00119723 0.154332 0.318388 0.0
C_ C_ 0.241163 0.101612 0.231107 0.0
C_ C_ 0.254635 0.131645 0.249144 0.0
C_ C_ 0.274965 0.127032 0.278042 0.0
C_ C_ 0.287322 0.0925834 0.286883 0.0
C_ C_ 0.267555 0.0629488 0.269547 0.0
C_ C_ 0.224782 0.460581 0.272573 0.0
C_ C_ 0.232665 0.4275 0.289242 0.0
C_ C_ 0.250368 0.39511 0.27615 0.0
C_ C_ 0.268538 0.368112 0.295254 0.0
C_ C_ 0.266733 0.372997 0.326112 0.0
C_ C_ 0.243596 0.401043 0.338513 0.0
C_ C_ 0.22291 0.426833 0.321288 0.0
C_ C_ 0.222969 0.39096 0.367417 0.0
C_ C_ 0.258572 0.345343 0.346872 0.0
C_ C_ 0.168207 0.313266 0.440846 0.0
C_ C_ 0.193211 0.339785 0.422414 0.0
C_ C_ 0.201473 0.33095 0.392065 0.0
C_ C_ 0.177967 0.298015 0.381028 0.0
C_ C_ 0.153586 0.27278 0.400669 0.0
C_ C_ 0.0345868 0.465653 0.333793 0.0
C_ C_ 0.00340479 0.458134 0.361589 0.0
C_ C_ 0.296048 0.471404 0.374813 0.0
C_ C_ 0.274639 0.464173 0.403727 0.0
C_ C_ 0.308785 0.452063 0.425949 0.0
C_ C_ 0.994838 0.430297 0.409161 0.0
C_ C_ 0.0243539 0.437215 0.384404 0.0
C_ C_ 0.295794 0.438022 0.453641 0.0
C_ C_ -0.000540424 0.403411 0.429036 0.0
C_ C_ 0.236077 0.342508 0.0136314 0.0
C_ C_ 0.283983 0.382393 0.506396 0.0
C_ C_ 0.304661 0.379047 0.476074 0.0
C_ C_ 0.30447 0.344444 0.463766 0.0
C_ C_ 0.284163 0.315071 0.480253 0.0
C_ C_ 0.10672 0.290304 0.022086 0.0
C_ C_ 0.0971375 0.320969 0.041149 0.0
C_ C_ 0.0539786 0.34199 0.0373274 0.0
C_ C_ 0.0387887 0.363302 0.0609813 0.0
C_ C_ 0.0730271 0.368885 0.0860195 0.0
C_ C_ 0.119006 0.352292 0.0887473 0.0
C_ C_ 0.133223 0.329153 0.0650069 0.0
C_ C_ 0.156409 0.3744 0.103944 0.0
C_ C_ 0.083542 0.403169 0.100118 0.0
C_ C_ 0.186666 0.488542 0.147447 0.0
C_ C_ 0.166015 0.466139 0.125036 0.0
C_ C_ 0.152057 0.431019 0.133224 0.0
C_ C_ 0.159335 0.419052 0.162601 0.0
C_ C_ 0.176636 0.443147 0.184179 0.0
C_ C_ 0.300969 0.290351 0.0855833 0.0
C_ C_ 0.32978 0.300111 0.113361 0.0
C_ C_ 0.0506763 0.284576 0.113884 0.0
C_ C_ 0.0784812 0.290955 0.140016 0.0
C_ C_ 0.054761 0.308017 0.164137 0.0
C_ C_ 0.332183 0.322096 0.162946 0.0
C_ C_ 0.307472 0.319093 0.13566 0.0
C_ C_ 0.0785889 0.326727 0.187433 0.0
C_ C_ 0.326406 0.349239 0.18324 0.0
C_ C_ 0.104965 0.408238 0.259117 0.0
C_ C_ 0.0929673 0.378423 0.240922 0.0
C_ C_ 0.0599736 0.380928 0.215598 0.0
C_ C_ 0.0447854 0.415012 0.207114 0.0
C_ C_ 0.0570988 0.444734 0.226762 0.0
N_ N_ 0.186219 0.224767 0.0729023 0.0
N_ N_ 0.125589 0.154304 0.140322 0.0
N_ N_ 0.0478206 0.104483 0.0561377 0.0
N_ N_ 0.0894699 0.191451 0.999495039 0.0
N_ N_ 0.157086 0.0250092 0.322868 0.0
N_ N_ 0.223648 0.0969818 0.388235 0.0
N_ N_ 0.291726 0.158268 0.296304 0.0
N_ N_ 0.246328 0.068251 0.24193 0.0
N_ N_ 0.151314 0.280321 0.429971 0.0
N_ N_ 0.229433 0.355465 0.370296 0.0
N_ N_ 0.325452 0.409787 0.459094 0.0
N_ N_ 0.261084 0.319879 0.507426 0.0
N_ N_ 0.1915 0.477003 0.176223 0.0
N_ N_ 0.133827 0.40597 0.11035 0.0
N_ N_ 0.0443265 0.350737 0.197495 0.0
N_ N_ 0.0877294 0.440507 0.251702 0.0
O_ O_ 0.1336 0.0176183 0.227448 0.0
O_ O_ 0.0715268 0.0381678 0.256718 0.0
O_ O_ 0.044992 0.176443 0.151227 0.0
O_ O_ 0.200274 0.119531 0.147203 0.0
O_ O_ 0.256331 0.0526894 0.172763 0.0
O_ O_ 0.30452 0.00798532 0.180562 0.0
O_ O_ 0.286021 0.122723 0.0726018 0.0
O_ O_ 0.129537 0.0787124 0.0550419 0.0
O_ O_ 0.202311 0.237735 0.466546 0.0
O_ O_ 0.253785 0.213126 0.00672055 0.0
O_ O_ 0.29045 0.0687338 0.410809 0.0
O_ O_ 0.152966 0.135087 0.383035 0.0
O_ O_ 0.0729418 0.195121 0.422471 0.0
O_ O_ 0.0262663 0.240171 0.432292 0.0
O_ O_ 0.0462852 0.143587 0.30821 0.0
O_ O_ 0.206384 0.176266 0.303228 0.0
O_ O_ 0.198594 0.485489 0.283747 0.0
O_ O_ 0.249177 0.467825 0.248006 0.0
O_ O_ 0.286665 0.318002 0.348729 0.0
O_ O_ 0.183555 0.404064 0.380681 0.0
O_ O_ 0.0802577 0.45402 0.330979 0.0
O_ O_ 0.0200576 0.486504 0.313297 0.0
O_ O_ 0.0460469 0.39247 0.438661 0.0
O_ O_ 0.24855 0.4401 0.46443 0.0
O_ O_ 0.13063 0.264468 0.0328166 0.0
O_ O_ 0.0786847 0.282907 0.499404 0.0
O_ O_ 0.0581782 0.431478 0.0921515 0.0
O_ O_ 0.207588 0.37373 0.0977713 0.0
O_ O_ 0.255344 0.30112 0.0817166 0.0
O_ O_ 0.312917 0.264203 0.0688334 0.0
O_ O_ 0.279661 0.359918 0.191837 0.0
O_ O_ 0.130987 0.331348 0.190823 0.0
Cd Cd 0.23045 0.0116915 0.713585 0.0
Cd Cd 0.106819 0.236956 0.966197 0.0
Cd Cd 0.0993246 0.489259 0.784668 0.0
Cd Cd 0.236559 0.267764 0.53704 0.0
H_ H_ 0.0290234 0.0856355 0.730439 0.0
H_ H_ 0.431042 0.16107 0.722229 0.0
H_ H_ 0.173456 0.0717103 0.679203 0.0
H_ H_ 0.179296 0.261617 0.6031 0.0
H_ H_ 0.137594 0.215306 0.637349 0.0
H_ H_ 0.163719 0.138673 0.571721 0.0
H_ H_ 0.207169 0.184266 0.540839 0.0
H_ H_ 0.0699282 0.0232945 0.656111 0.0
H_ H_ 0.118477 0.0336768 0.606568 0.0
H_ H_ 0.268692 0.0762794 0.618443 0.0
H_ H_ 0.122335 0.153194 0.970287 0.0
H_ H_ 0.0886639 0.0962612 0.498089 0.0
H_ H_ 0.0111284 0.168825 0.55688 0.0
H_ H_ 0.0473073 0.220843 0.526237 0.0
H_ H_ 0.28146 0.151563 0.996629 0.0
H_ H_ 1.00045 0.122678 0.938715 0.0
H_ H_ 0.178223 0.193032 0.927518 0.0
H_ H_ 0.150073 0.489151 0.854712 0.0
H_ H_ 0.163989 0.0242948 0.895634 0.0
H_ H_ 0.20333 0.107903 0.833149 0.0
H_ H_ 0.154924 0.0704509 0.791468 0.0
H_ H_ 0.271675 0.223227 0.89678 0.0
H_ H_ 0.226347 0.213911 0.848788 0.0
H_ H_ 0.0666672 0.176356 0.866045 0.0
H_ H_ 0.247574 0.0988859 0.703361 0.0
H_ H_ 0.283009 0.152519 0.729415 0.0
H_ H_ 0.310042 0.0885305 0.809169 0.0
H_ H_ 0.291023 0.035567 0.778197 0.0
H_ H_ 0.225929 0.394827 0.745004 0.0
H_ H_ -0.006063000000000041 0.367194 0.805867 0.0
H_ H_ 0.21532 0.450213 0.830285 0.0
H_ H_ 0.0636851 0.311023 0.933389 0.0
H_ H_ 0.0856465 0.346353 0.889116 0.0
H_ H_ 0.238932 0.308132 0.890546 0.0
H_ H_ 0.204668 0.258035 0.921426 0.0
H_ H_ 0.279931 0.497075 0.860568 0.0
H_ H_ 0.221921 0.47461 0.905419 0.0
H_ H_ 0.0639086 0.431285 0.881077 0.0
H_ H_ 0.245482 0.352667 0.543034 0.0
H_ H_ 0.246525 0.395546 1.00148862 0.0
H_ H_ 0.307232 0.321227 0.939246 0.0
H_ H_ 0.285337 0.273924 0.979353 0.0
H_ H_ 0.014477 0.321259 0.528325 0.0
H_ H_ 0.458772 0.411351 0.515512 0.0
H_ H_ 0.174769 0.321874 0.562912 0.0
H_ H_ 0.163122 0.0104218 0.654849 0.0
H_ H_ 0.142359 0.473136 0.607199 0.0
H_ H_ 0.144597 0.39091 0.677431 0.0
H_ H_ 0.169506 0.438502 0.712615 0.0
H_ H_ 0.0712413 0.273519 0.594009 0.0
H_ H_ 0.125272 0.301331 0.638018 0.0
H_ H_ 0.315127 0.35248 0.614781 0.0
H_ H_ 0.108129 0.399969 0.787526 0.0
H_ H_ 0.100211 0.350734 0.748709 0.0
H_ H_ 0.0216001 0.422594 0.689934 0.0
H_ H_ 0.0513517 0.470445 0.721716 0.0
C_ C_ 0.110789 0.0437133 0.727197 0.0
C_ C_ 0.100996 0.0741601 0.707619 0.0
C_ C_ 0.0547295 0.092199 0.711833 0.0
C_ C_ 0.0411571 0.11939 0.690909 0.0
C_ C_ 0.0809498 0.132166 0.671428 0.0
C_ C_ 0.125861 0.114727 0.667101 0.0
C_ C_ 0.136578 0.0843143 0.683358 0.0
C_ C_ 0.146234 0.124887 0.639137 0.0
C_ C_ 0.0735963 0.150631 0.645463 0.0
C_ C_ 0.170138 0.234687 0.59486 0.0
C_ C_ 0.144992 0.208923 0.613575 0.0
C_ C_ 0.132835 0.173778 0.603633 0.0
C_ C_ 0.155158 0.164671 0.575872 0.0
C_ C_ 0.179729 0.190781 0.558458 0.0
C_ C_ 0.29557 0.0339442 0.663461 0.0
C_ C_ 0.3216 0.0378043 0.63438 0.0
C_ C_ 0.0506532 0.0346493 0.636617 0.0
C_ C_ 0.0804257 0.0431473 0.609873 0.0
C_ C_ 0.0528929 0.0577485 0.585838 0.0
C_ C_ 0.333693 0.0698326 0.58835 0.0
C_ C_ 0.300963 0.0593859 0.612727 0.0
C_ C_ 0.0767868 0.076553 0.563196 0.0
C_ C_ 0.338051 0.104609 0.576952 0.0
C_ C_ 0.096076 0.157763 0.989494 0.0
C_ C_ 0.0835796 0.124464 0.506753 0.0
C_ C_ 0.0579674 0.130466 0.534178 0.0
C_ C_ 0.0403702 0.164422 0.538783 0.0
C_ C_ 0.0585122 0.193299 0.521354 0.0
C_ C_ 0.22447 0.208026 0.983031 0.0
C_ C_ 0.230309 0.176138 0.964236 0.0
C_ C_ 0.259881 0.148521 0.975233 0.0
C_ C_ 0.267879 0.118468 0.95743 0.0
C_ C_ 0.249177 0.116982 0.927836 0.0
C_ C_ 0.219898 0.144177 0.916498 0.0
C_ C_ 0.208234 0.17364 0.934651 0.0
C_ C_ 0.186858 0.128503 0.89479 0.0
C_ C_ 0.234509 0.0865893 0.912238 0.0
C_ C_ 0.150803 0.0112721 0.848798 0.0
C_ C_ 0.165916 0.0336285 0.872139 0.0
C_ C_ 0.183985 0.0686404 0.867087 0.0
C_ C_ 0.186716 0.0814166 0.837541 0.0
C_ C_ 0.16434 0.0605213 0.814014 0.0
C_ C_ 0.0350438 0.214208 0.916503 0.0
C_ C_ 0.00341007 0.205042 0.889956 0.0
C_ C_ 0.291522 0.210662 0.878132 0.0
C_ C_ 0.265161 0.207273 0.851247 0.0
C_ C_ 0.293898 0.197444 0.825836 0.0
C_ C_ 0.998528 0.183435 0.837352 0.0
C_ C_ 0.0278259 0.188602 0.863766 0.0
C_ C_ 0.273647 0.178781 0.801406 0.0
C_ C_ 0.00146566 0.154995 0.817475 0.0
C_ C_ 0.258814 0.0962596 0.727189 0.0
C_ C_ 0.280169 0.12626 0.741789 0.0
C_ C_ 0.296714 0.125019 0.772553 0.0
C_ C_ 0.300182 0.09136 0.78644 0.0
C_ C_ 0.28074 0.0604878 0.77054 0.0
C_ C_ 0.221 0.462493 0.771319 0.0
C_ C_ 0.218512 0.427823 0.78653 0.0
C_ C_ 0.224447 0.394312 0.769292 0.0
C_ C_ 0.217045 0.362133 0.784806 0.0
C_ C_ 0.217475 0.360792 0.815805 0.0
C_ C_ 0.219706 0.392356 0.832179 0.0
C_ C_ 0.214884 0.426329 0.817887 0.0
C_ C_ 0.195471 0.383131 0.85934 0.0
C_ C_ 0.192169 0.334473 0.832762 0.0
C_ C_ 0.102333 0.307597 0.922248 0.0
C_ C_ 0.113742 0.327598 0.896275 0.0
C_ C_ 0.165751 0.329754 0.885614 0.0
C_ C_ 0.200918 0.305716 0.89611 0.0
C_ C_ 0.183407 0.281158 0.917434 0.0
C_ C_ 0.0287294 0.463366 0.830584 0.0
C_ C_ 0.99908491 0.455102 0.859311 0.0
C_ C_ 0.291867 0.476165 0.875072 0.0
C_ C_ 0.262212 0.466054 0.902242 0.0
C_ C_ 0.286339 0.443027 0.922249 0.0
C_ C_ 0.997538 0.43429 0.911152 0.0
C_ C_ 0.0242585 0.439159 0.883603 0.0
C_ C_ 0.259706 0.418803 0.941454 0.0
C_ C_ 0.000947495 0.405646 0.932086 0.0
C_ C_ 0.260987 0.351472 0.520444 0.0
C_ C_ 0.249904 0.370367 0.994434 0.0
C_ C_ 0.27799 0.363306 0.967904 0.0
C_ C_ 0.287899 0.327746 0.960674 0.0
C_ C_ 0.275817 0.301487 0.981107 0.0
C_ C_ 0.109482 0.290796 0.521752 0.0
C_ C_ 0.0977518 0.320705 0.542405 0.0
C_ C_ 0.0481597 0.335665 0.541354 0.0
C_ C_ 0.0398339 0.366003 0.558906 0.0
C_ C_ 0.0834195 0.383708 0.573193 0.0
C_ C_ 0.130634 0.366549 0.576638 0.0
C_ C_ 0.136848 0.332695 0.562943 0.0
C_ C_ 0.152416 0.377672 0.603171 0.0
C_ C_ 0.0787899 0.403176 0.599459 0.0
C_ C_ 0.185548 0.483667 0.64904 0.0
C_ C_ 0.154078 0.462199 0.629848 0.0
C_ C_ 0.139406 0.427034 0.63986 0.0
C_ C_ 0.152913 0.417282 0.669573 0.0
C_ C_ 0.174347 0.442148 0.689137 0.0
C_ C_ 0.303514 0.287499 0.587082 0.0
C_ C_ 0.33678 0.296573 0.612405 0.0
C_ C_ 0.0538719 0.288377 0.612326 0.0
C_ C_ 0.0822922 0.297695 0.638114 0.0
C_ C_ 0.0558103 0.308067 0.663242 0.0
C_ C_ 0.366419 0.337653 0.650835 0.0
C_ C_ 0.336325 0.330737 0.624814 0.0
C_ C_ 0.0786274 0.328243 0.686125 0.0
C_ C_ 0.35163 0.362752 0.672513 0.0
C_ C_ 0.0925684 0.404402 0.764838 0.0
C_ C_ 0.0828301 0.375589 0.744666 0.0
C_ C_ 0.0564343 0.380503 0.717128 0.0
C_ C_ 0.0436631 0.416035 0.709377 0.0
C_ C_ 0.0609795 0.444391 0.727831 0.0
N_ N_ 0.187482 0.225126 0.567532 0.0
N_ N_ 0.113511 0.147309 0.62547 0.0
N_ N_ 0.0440907 0.100899 0.553466 0.0
N_ N_ 0.0908595 0.188045 0.497961 0.0
N_ N_ 0.150298 0.0252353 0.819839 0.0
N_ N_ 0.193168 0.0923847 0.893543 0.0
N_ N_ 0.310912 0.157724 0.789926 0.0
N_ N_ 0.2574 0.0638411 0.743025 0.0
N_ N_ 0.13807 0.284632 0.933257 0.0
N_ N_ 0.177136 0.349574 0.858411 0.0
N_ N_ 0.290073 0.391489 0.946273 0.0
N_ N_ 0.249016 0.308724 0.00574064 0.0
N_ N_ 0.193279 0.475072 0.677953 0.0
N_ N_ 0.121166 0.399928 0.61755 0.0
N_ N_ 0.0456898 0.352489 0.69576 0.0
N_ N_ 0.0855969 0.438652 0.754016 0.0
O_ O_ 0.131303 0.0180681 0.715573 0.0
O_ O_ 0.0864373 0.0391768 0.750842 0.0
O_ O_ 0.0345272 0.173537 0.641194 0.0
O_ O_ 0.195444 0.120424 0.630707 0.0
O_ O_ 0.250001 0.044133 0.667477 0.0
O_ O_ 0.311161 0.0128817 0.682497 0.0
O_ O_ 0.295898 0.123298 0.570561 0.0
O_ O_ 0.127946 0.0796035 0.559357 0.0
O_ O_ 0.199038 0.232976 0.973999 0.0
O_ O_ 0.26431 0.224527 0.499127 0.0
O_ O_ 0.248661 0.0543855 0.919213 0.0
O_ O_ 0.141116 0.140712 0.887814 0.0
O_ O_ 0.0816897 0.203986 0.91895 0.0
O_ O_ 0.0180622 0.229925 0.938813 0.0
O_ O_ 0.0386143 0.131522 0.817753 0.0
O_ O_ 0.223454 0.169099 0.799725 0.0
O_ O_ 0.195642 0.488322 0.781344 0.0
O_ O_ 0.25003 0.468643 0.747782 0.0
O_ O_ 0.164094 0.307548 0.821041 0.0
O_ O_ 0.169706 0.406544 0.87357 0.0
O_ O_ 0.073527 0.451724 0.826019 0.0
O_ O_ 0.0149236 0.487486 0.811738 0.0
O_ O_ 0.0440739 0.397491 0.944374 0.0
O_ O_ 0.209132 0.417496 0.94753 0.0
O_ O_ 0.138184 0.266295 0.530794 0.0
O_ O_ 0.0797949 0.284865 0.998209 0.0
O_ O_ 0.0315587 0.412124 0.609312 0.0
O_ O_ 0.202925 0.376535 0.606304 0.0
O_ O_ 0.265512 0.306306 0.581527 0.0
O_ O_ 0.3116 0.26111 0.570262 0.0
O_ O_ 0.337923 0.395404 0.66599 0.0
O_ O_ 0.129982 0.331472 0.690798 0.0
Cd Cd 0.22524 0.514614 0.213098 0.0
Cd Cd 0.102035 0.737522 0.462962 0.0
Cd Cd 0.103471 0.988567 0.288656 0.0
Cd Cd 0.23378 0.760801 0.0345242 0.0
H_ H_ 0.0104782 0.576155 0.221175 0.0
H_ H_ 0.337192 0.631308 0.192183 0.0
H_ H_ 0.165213 0.564609 0.180358 0.0
H_ H_ 0.155568 0.758478 0.0937588 0.0
H_ H_ 0.125758 0.717037 0.133481 0.0
H_ H_ 0.165308 0.63116 0.0780791 0.0
H_ H_ 0.215724 0.67613 0.0445214 0.0
H_ H_ 0.0672855 0.519823 0.155229 0.0
H_ H_ 0.122395 0.542988 0.113331 0.0
H_ H_ 0.266296 0.564879 0.11369 0.0
H_ H_ 0.112481 0.650463 0.466116 0.0
H_ H_ 0.0835401 0.600199 1.00123264 0.0
H_ H_ 0.0267173 0.675142 0.0641427 0.0
H_ H_ 0.0491495 0.721824 0.0303014 0.0
H_ H_ 0.291372 0.660431 0.485622 0.0
H_ H_ 1.00140508 0.626825 0.435381 0.0
H_ H_ 0.169057 0.695453 0.428622 0.0
H_ H_ 0.145375 0.987738 0.356501 0.0
H_ H_ 0.180411 0.53673 0.392131 0.0
H_ H_ 0.163883 0.621104 0.328225 0.0
H_ H_ 0.127378 0.577194 0.290613 0.0
H_ H_ 0.269107 0.737257 0.400805 0.0
H_ H_ 0.215839 0.721824 0.355833 0.0
H_ H_ 0.0646214 0.676707 0.370291 0.0
H_ H_ 0.214316 0.601639 0.216405 0.0
H_ H_ 0.226621 0.650499 0.2538 0.0
H_ H_ 0.313341 0.580066 0.307659 0.0
H_ H_ 0.276742 0.529562 0.27788 0.0
H_ H_ 0.304164 0.915845 0.263466 0.0
H_ H_ 0.998065 0.869392 0.308337 0.0
H_ H_ 0.171708 0.93959 0.322443 0.0
H_ H_ 0.130393 0.735218 0.38957 0.0
H_ H_ 0.166506 0.778735 0.349746 0.0
H_ H_ 0.189166 0.860675 0.418846 0.0
H_ H_ 0.161366 0.816281 0.456746 0.0
H_ H_ 0.267539 0.986424 0.34679 0.0
H_ H_ 0.215246 0.967185 0.393764 0.0
H_ H_ 0.0579996 0.919657 0.38028 0.0
H_ H_ 0.22499 0.843541 0.0333132 0.0
H_ H_ 0.260958 0.903053 0.502468 0.0
H_ H_ 0.298871 0.82548 0.435845 0.0
H_ H_ 0.283773 0.78016 0.471443 0.0
H_ H_ 0.0230555 0.833305 0.0210457 0.0
H_ H_ 0.335612 0.880594 0.058654 0.0
H_ H_ 0.169579 0.815625 0.0689492 0.0
H_ H_ 0.199685 0.515371 0.140698 0.0
H_ H_ 0.134591 0.972368 0.1135 0.0
H_ H_ 0.179947 0.884735 0.169375 0.0
H_ H_ 0.214291 0.930947 0.207435 0.0
H_ H_ 0.0620893 0.760077 0.0976881 0.0
H_ H_ 0.116541 0.781171 0.142649 0.0
H_ H_ 0.269821 0.823898 0.130317 0.0
H_ H_ 0.115305 0.898117 0.282964 0.0
H_ H_ 0.0936056 0.85008 0.248619 0.0
H_ H_ 0.0208029 0.921394 0.189694 0.0
H_ H_ 0.0603275 0.972492 0.218945 0.0
C_ C_ 0.100859 0.539308 0.225918 0.0
C_ C_ 0.0920179 0.569228 0.206515 0.0
C_ C_ 0.04437 0.586563 0.207233 0.0
C_ C_ 0.0372004 0.616118 0.189235 0.0
C_ C_ 0.0791979 0.629373 0.171116 0.0
C_ C_ 0.127204 0.613594 0.170546 0.0
C_ C_ 0.132225 0.579799 0.185794 0.0
C_ C_ 0.148578 0.622229 0.142946 0.0
C_ C_ 0.0757368 0.649523 0.145041 0.0
C_ C_ 0.158425 0.730646 0.0905181 0.0
C_ C_ 0.13572 0.70746 0.111485 0.0
C_ C_ 0.138533 0.670338 0.105845 0.0
C_ C_ 0.165752 0.659443 0.0812573 0.0
C_ C_ 0.190085 0.683754 0.0613327 0.0
C_ C_ 0.300924 0.541733 0.168483 0.0
C_ C_ 0.331536 0.545091 0.139065 0.0
C_ C_ 0.0494101 0.535405 0.137107 0.0
C_ C_ 0.0796407 0.54334 0.1127 0.0
C_ C_ 0.0557278 0.558148 0.087191 0.0
C_ C_ 0.33703 0.567495 0.0892016 0.0
C_ C_ 0.306607 0.560651 0.113951 0.0
C_ C_ 0.0809731 0.580868 0.0663603 0.0
C_ C_ 0.332211 0.595023 0.0700474 0.0
C_ C_ 0.0941678 0.65592 0.487985 0.0
C_ C_ 0.0817279 0.628198 0.00899 0.0
C_ C_ 0.0561235 0.633682 0.0348655 0.0
C_ C_ 0.0476547 0.668522 0.043395 0.0
C_ C_ 0.0577585 0.695193 0.022716 0.0
C_ C_ 0.226083 0.712833 0.479741 0.0
C_ C_ 0.231337 0.681044 0.458869 0.0
C_ C_ 0.272584 0.659263 0.463441 0.0
C_ C_ 0.286501 0.63485 0.442827 0.0
C_ C_ 0.260542 0.63513 0.414657 0.0
C_ C_ 0.214213 0.653768 0.411489 0.0
C_ C_ 0.198783 0.676863 0.434079 0.0
C_ C_ 0.181974 0.635049 0.391657 0.0
C_ C_ 0.251225 0.604179 0.396903 0.0
C_ C_ 0.153676 0.521189 0.347256 0.0
C_ C_ 0.170069 0.545502 0.369413 0.0
C_ C_ 0.180529 0.580989 0.360705 0.0
C_ C_ 0.165097 0.592847 0.333038 0.0
C_ C_ 0.141514 0.567696 0.312421 0.0
C_ C_ 0.028813 0.708797 0.419108 0.0
C_ C_ -0.000175342 0.703918 0.390285 0.0
C_ C_ 0.285257 0.720725 0.3851 0.0
C_ C_ 0.255377 0.711858 0.3594 0.0
C_ C_ 0.280305 0.694082 0.335816 0.0
C_ C_ 0.997221 0.68044 0.339356 0.0
C_ C_ 0.0233275 0.684778 0.367121 0.0
C_ C_ 0.254496 0.670699 0.316516 0.0
C_ C_ 0.000347202 0.651653 0.320022 0.0
C_ C_ 0.228237 0.596548 0.23867 0.0
C_ C_ 0.242323 0.624976 0.257772 0.0
C_ C_ 0.271397 0.619482 0.283882 0.0
C_ C_ 0.282603 0.584507 0.291175 0.0
C_ C_ 0.264659 0.55572 0.272366 0.0
C_ C_ 0.22391 0.962834 0.270051 0.0
C_ C_ 0.236511 0.930961 0.289776 0.0
C_ C_ 0.280466 0.910279 0.283655 0.0
C_ C_ 0.289688 0.880738 0.302959 0.0
C_ C_ 0.258947 0.875984 0.329716 0.0
C_ C_ 0.221428 0.898424 0.337892 0.0
C_ C_ 0.207975 0.925057 0.317802 0.0
C_ C_ 0.186496 0.879558 0.354701 0.0
C_ C_ 0.247838 0.844282 0.344839 0.0
C_ C_ 0.141124 0.763094 0.396263 0.0
C_ C_ 0.162717 0.786361 0.373809 0.0
C_ C_ 0.181487 0.821258 0.381916 0.0
C_ C_ 0.178407 0.832812 0.411934 0.0
C_ C_ 0.160235 0.808509 0.433095 0.0
C_ C_ 0.0339526 0.963347 0.333343 0.0
C_ C_ -5.37563e-05 0.952553 0.359316 0.0
C_ C_ 0.2835 0.969079 0.364855 0.0
C_ C_ 0.256867 0.963714 0.392504 0.0
C_ C_ 0.280263 0.944427 0.414707 0.0
C_ C_ 0.997667 0.933095 0.412195 0.0
C_ C_ 0.0226494 0.934269 0.38337 0.0
C_ C_ 0.255075 0.920703 0.434519 0.0
C_ C_ 1.0027846 0.905565 0.432735 0.0
C_ C_ 0.241741 0.839925 0.0111562 0.0
C_ C_ 0.265827 0.877196 0.494784 0.0
C_ C_ 0.274819 0.869993 0.465181 0.0
C_ C_ 0.278492 0.83384 0.455766 0.0
C_ C_ 0.269418 0.805781 0.476452 0.0
C_ C_ 0.107591 0.791692 0.0223158 0.0
C_ C_ 0.0966548 0.820134 0.0430418 0.0
C_ C_ 0.0498033 0.840294 0.0395478 0.0
C_ C_ 0.0375405 0.864631 0.0620755 0.0
C_ C_ 0.0706738 0.868252 0.0874864 0.0
C_ C_ 0.117545 0.851103 0.0890529 0.0
C_ C_ 0.129834 0.82638 0.0684942 0.0
C_ C_ 0.153811 0.87192 0.105602 0.0
C_ C_ 0.0797848 0.898606 0.104626 0.0
C_ C_ 0.164356 0.985681 0.156986 0.0
C_ C_ 0.148455 0.960986 0.134169 0.0
C_ C_ 0.152565 0.925626 0.137927 0.0
C_ C_ 0.174912 0.91355 0.165339 0.0
C_ C_ 0.190165 0.938535 0.1886 0.0
C_ C_ 0.301268 0.787246 0.081644 0.0
C_ C_ 0.334033 0.796568 0.108846 0.0
C_ C_ 0.048588 0.781881 0.113543 0.0
C_ C_ 0.0782861 0.790498 0.139631 0.0
C_ C_ 0.0544328 0.807594 0.162908 0.0
C_ C_ 0.336997 0.818662 0.160242 0.0
C_ C_ 0.310086 0.813919 0.133186 0.0
C_ C_ 0.0797304 0.829411 0.185432 0.0
C_ C_ 0.334067 0.848369 0.179024 0.0
C_ C_ 0.101936 0.904402 0.261334 0.0
C_ C_ 0.0876436 0.876625 0.241964 0.0
C_ C_ 0.0597797 0.882404 0.21521 0.0
C_ C_ 0.042528 0.916259 0.21002 0.0
C_ C_ 0.0646798 0.944555 0.226793 0.0
N_ N_ 0.18823 0.719582 0.0669759 0.0
N_ N_ 0.117835 0.644365 0.127822 0.0
N_ N_ 0.0450476 0.603789 0.0553514 0.0
N_ N_ 0.0882855 0.690561 0.9973 0.0
N_ N_ 0.140554 0.532426 0.318639 0.0
N_ N_ 0.204634 0.606458 0.381891 0.0
N_ N_ 0.287928 0.648832 0.304069 0.0
N_ N_ 0.236692 0.561831 0.24702 0.0
N_ N_ 0.143179 0.77376 0.425821 0.0
N_ N_ 0.200943 0.845624 0.358408 0.0
N_ N_ 0.28863 0.898756 0.445401 0.0
N_ N_ 0.251988 0.81259 0.50447 0.0
N_ N_ 0.181947 0.973779 0.184038 0.0
N_ N_ 0.130732 0.899348 0.1162 0.0
N_ N_ 0.0461823 0.852646 0.196201 0.0
N_ N_ 0.0877839 0.938834 0.254298 0.0
O_ O_ 0.131153 0.514933 0.218787 0.0
O_ O_ 0.0783987 0.537344 0.251439 0.0
O_ O_ 0.0298113 0.658084 0.133393 0.0
O_ O_ 0.200754 0.619218 0.137951 0.0
O_ O_ 0.258025 0.554855 0.172603 0.0
O_ O_ 0.31479 0.520687 0.188755 0.0
O_ O_ 0.286154 0.603084 0.0583269 0.0
O_ O_ 0.119074 0.56973 0.0488253 0.0
O_ O_ 0.197237 0.737658 0.472858 0.0
O_ O_ 0.257969 0.714483 0.00125408 0.0
O_ O_ 0.289919 0.583514 0.386942 0.0
O_ O_ 0.130855 0.635609 0.394473 0.0
O_ O_ 0.0747447 0.695744 0.423113 0.0
O_ O_ 0.0181596 0.733893 0.436189 0.0
O_ O_ 0.0458157 0.644552 0.308623 0.0
O_ O_ 0.210278 0.677906 0.303311 0.0
O_ O_ 0.199262 0.988192 0.281942 0.0
O_ O_ 0.254607 0.970461 0.247743 0.0
O_ O_ 0.264905 0.813886 0.335262 0.0
O_ O_ 0.148591 0.892779 0.370799 0.0
O_ O_ 0.0731838 0.946291 0.326509 0.0
O_ O_ 0.0235721 0.989204 0.317415 0.0
O_ O_ 0.039374 0.881364 0.42901 0.0
O_ O_ 0.205027 0.920792 0.442297 0.0
O_ O_ 0.13478 0.76578 0.0319705 0.0
O_ O_ 0.0762545 0.785242 0.495077 0.0
O_ O_ 0.0387368 0.913909 0.117821 0.0
O_ O_ 0.204886 0.87342 0.0983223 0.0
O_ O_ 0.25654 0.798922 0.0785212 0.0
O_ O_ 0.316282 0.764293 0.0640098 0.0
O_ O_ 0.287889 0.856466 0.18886 0.0
O_ O_ 0.122431 0.820588 0.200562 0.0
Cd Cd 0.229838 0.515538 0.713408 0.0
Cd Cd 0.105433 0.736366 0.963911 0.0
Cd Cd 0.106896 0.988098 0.784327 0.0
Cd Cd 0.227558 0.764144 0.536404 0.0
H_ H_ 0.0157746 0.581228 0.726163 0.0
H_ H_ 0.340376 0.633462 0.695041 0.0
H_ H_ 0.157546 0.559282 0.67614 0.0
H_ H_ 0.172162 0.764668 0.604048 0.0
H_ H_ 0.127471 0.724589 0.639001 0.0
H_ H_ 0.156627 0.637903 0.578561 0.0
H_ H_ 0.209522 0.682551 0.548411 0.0
H_ H_ 0.0697489 0.519859 0.655004 0.0
H_ H_ 0.121267 0.546312 0.611636 0.0
H_ H_ 0.275362 0.579294 0.62047 0.0
H_ H_ 0.105079 0.650604 0.966793 0.0
H_ H_ 0.0914672 0.601163 0.500582 0.0
H_ H_ 0.0269156 0.675782 0.563351 0.0
H_ H_ 0.0467559 0.723332 0.52758 0.0
H_ H_ 0.311946 0.666685 0.978848 0.0
H_ H_ 1.00019 0.623242 0.938062 0.0
H_ H_ 0.163231 0.682054 0.935477 0.0
H_ H_ 0.140952 0.98351 0.853031 0.0
H_ H_ 0.197173 0.532607 0.887162 0.0
H_ H_ 0.170915 0.618762 0.826576 0.0
H_ H_ 0.118946 0.572734 0.793834 0.0
H_ H_ 0.265875 0.728925 0.903942 0.0
H_ H_ 0.209641 0.708709 0.860076 0.0
H_ H_ 0.0697527 0.684586 0.865081 0.0
H_ H_ 0.21635 0.598981 0.716532 0.0
H_ H_ 0.249724 0.650583 0.746637 0.0
H_ H_ 0.29056 0.580638 0.817935 0.0
H_ H_ 0.279082 0.52948 0.781575 0.0
H_ H_ 0.317457 0.922455 0.775197 0.0
H_ H_ 0.995484 0.867089 0.806364 0.0
H_ H_ 0.171304 0.932661 0.820037 0.0
H_ H_ 0.164617 0.73447 0.902655 0.0
H_ H_ 0.210362 0.778509 0.863897 0.0
H_ H_ 0.161398 0.865687 0.924165 0.0
H_ H_ 0.136014 0.821922 0.957226 0.0
H_ H_ 0.262556 0.975049 0.844873 0.0
H_ H_ 0.214852 0.959673 0.888678 0.0
H_ H_ 0.0661859 0.930463 0.882377 0.0
H_ H_ 0.226573 0.852512 0.534669 0.0
H_ H_ 0.234699 0.894583 1.00093 0.0
H_ H_ 0.299375 0.829327 0.932671 0.0
H_ H_ 0.289575 0.777581 0.966978 0.0
H_ H_ 0.0138192 0.823491 0.526955 0.0
H_ H_ 0.340051 0.88427 0.554749 0.0
H_ H_ 0.165083 0.814444 0.566417 0.0
H_ H_ 0.199885 0.509213 0.640726 0.0
H_ H_ 0.112769 0.967061 0.620008 0.0
H_ H_ 0.185268 0.884774 0.66587 0.0
H_ H_ 0.221242 0.930041 0.703473 0.0
H_ H_ 0.0702188 0.775805 0.592518 0.0
H_ H_ 0.121448 0.787341 0.64379 0.0
H_ H_ 0.268522 0.822725 0.631432 0.0
H_ H_ 0.10826 0.903788 0.78462 0.0
H_ H_ 0.0854398 0.850372 0.752271 0.0
H_ H_ 0.0382538 0.92307 0.683102 0.0
H_ H_ 0.044771 0.972455 0.722992 0.0
C_ C_ 0.10355 0.538584 0.725535 0.0
C_ C_ 0.0930015 0.569449 0.705798 0.0
C_ C_ 0.0457131 0.588809 0.709274 0.0
C_ C_ 0.0344714 0.613848 0.687948 0.0
C_ C_ 0.0671581 0.618213 0.663127 0.0
C_ C_ 0.111588 0.599043 0.658563 0.0
C_ C_ 0.127265 0.577058 0.681323 0.0
C_ C_ 0.14682 0.620448 0.641841 0.0
C_ C_ 0.0755793 0.649077 0.647858 0.0
C_ C_ 0.165527 0.737224 0.597993 0.0
C_ C_ 0.140417 0.713974 0.617273 0.0
C_ C_ 0.137238 0.677011 0.610997 0.0
C_ C_ 0.160236 0.665211 0.584839 0.0
C_ C_ 0.186589 0.691072 0.565841 0.0
C_ C_ 0.304842 0.538188 0.667336 0.0
C_ C_ 0.333664 0.545636 0.64048 0.0
C_ C_ 0.0502636 0.531751 0.636448 0.0
C_ C_ 0.0798482 0.542869 0.610705 0.0
C_ C_ 0.0548828 0.559425 0.587363 0.0
C_ C_ 0.337034 0.568355 0.590019 0.0
C_ C_ 0.312793 0.566636 0.617728 0.0
C_ C_ 0.0794617 0.583592 0.566716 0.0
C_ C_ 0.332527 0.59637 0.570262 0.0
C_ C_ 0.0987013 0.656729 0.98937 0.0
C_ C_ 0.0843584 0.627952 0.508363 0.0
C_ C_ 0.0572704 0.633101 0.535364 0.0
C_ C_ 0.0469465 0.668438 0.54239 0.0
C_ C_ 0.0585094 0.696232 0.522017 0.0
C_ C_ 0.230459 0.709216 0.977949 0.0
C_ C_ 0.236088 0.677273 0.960287 0.0
C_ C_ 0.283228 0.658957 0.962425 0.0
C_ C_ 0.292325 0.631416 0.942045 0.0
C_ C_ 0.249228 0.617129 0.92461 0.0
C_ C_ 0.202093 0.632766 0.924204 0.0
C_ C_ 0.196925 0.665143 0.939969 0.0
C_ C_ 0.180699 0.624656 0.896502 0.0
C_ C_ 0.252853 0.598872 0.898746 0.0
C_ C_ 0.155023 0.517249 0.846514 0.0
C_ C_ 0.181517 0.541551 0.866739 0.0
C_ C_ 0.191821 0.578274 0.858016 0.0
C_ C_ 0.165593 0.589576 0.832266 0.0
C_ C_ 0.14093 0.564063 0.81223 0.0
C_ C_ 0.031946 0.714434 0.918928 0.0
C_ C_ 0.00201116 0.706292 0.889727 0.0
C_ C_ 0.2826 0.712786 0.887268 0.0
C_ C_ 0.252696 0.706797 0.860482 0.0
C_ C_ 0.278296 0.692306 0.835012 0.0
C_ C_ 0.997608 0.682018 0.838494 0.0
C_ C_ 0.0277546 0.688689 0.864377 0.0
C_ C_ 0.25364 0.669318 0.814715 0.0
C_ C_ 0.00057648 0.653021 0.81901 0.0
C_ C_ 0.231764 0.593924 0.739001 0.0
C_ C_ 0.254905 0.623577 0.755479 0.0
C_ C_ 0.275086 0.618366 0.783936 0.0
C_ C_ 0.282359 0.584872 0.794224 0.0
C_ C_ 0.266359 0.554876 0.775245 0.0
C_ C_ 0.231045 0.958488 0.773387 0.0
C_ C_ 0.235751 0.925679 0.790798 0.0
C_ C_ 0.285545 0.910796 0.79038 0.0
C_ C_ 0.294375 0.881616 0.809137 0.0
C_ C_ 0.252741 0.867206 0.825259 0.0
C_ C_ 0.205243 0.883314 0.827265 0.0
C_ C_ 0.199541 0.915645 0.813058 0.0
C_ C_ 0.183978 0.874339 0.854552 0.0
C_ C_ 0.259474 0.849536 0.851485 0.0
C_ C_ 0.165961 0.764873 0.906028 0.0
C_ C_ 0.189482 0.788839 0.883644 0.0
C_ C_ 0.193459 0.826208 0.890715 0.0
C_ C_ 0.16872 0.837943 0.917393 0.0
C_ C_ 0.150852 0.812483 0.938102 0.0
C_ C_ 0.0344193 0.965028 0.832564 0.0
C_ C_ 0.99887853 0.953507 0.859096 0.0
C_ C_ 0.283 0.966212 0.863605 0.0
C_ C_ 0.254433 0.955832 0.889367 0.0
C_ C_ 0.279138 0.944452 0.914348 0.0
C_ C_ 0.99717 0.933504 0.911279 0.0
C_ C_ 0.0253247 0.938444 0.883997 0.0
C_ C_ 0.252001 0.922347 0.93545 0.0
C_ C_ 0.0025861 0.905596 0.932867 0.0
C_ C_ 0.246677 0.8484 0.513263 0.0
C_ C_ 0.24701 0.869209 0.992437 0.0
C_ C_ 0.273558 0.86644 0.964682 0.0
C_ C_ 0.284428 0.8332 0.955051 0.0
C_ C_ 0.275716 0.803842 0.973583 0.0
C_ C_ 0.102009 0.788883 0.519638 0.0
C_ C_ 0.0921203 0.818345 0.542021 0.0
C_ C_ 0.045014 0.836336 0.540194 0.0
C_ C_ 0.0394225 0.866426 0.557664 0.0
C_ C_ 0.0814128 0.880231 0.575124 0.0
C_ C_ 0.125377 0.861363 0.578621 0.0
C_ C_ 0.13127 0.829747 0.562622 0.0
C_ C_ 0.148443 0.871508 0.604755 0.0
C_ C_ 0.0785656 0.900511 0.601739 0.0
C_ C_ 0.171036 0.983197 0.65432 0.0
C_ C_ 0.140638 0.958281 0.635987 0.0
C_ C_ 0.141438 0.921013 0.641258 0.0
C_ C_ 0.176432 0.91089 0.664122 0.0
C_ C_ 0.19818 0.936702 0.683749 0.0
C_ C_ 0.304672 0.789724 0.582106 0.0
C_ C_ 0.331962 0.794404 0.610967 0.0
C_ C_ 0.0514943 0.785369 0.613337 0.0
C_ C_ 0.0805681 0.792724 0.640166 0.0
C_ C_ 0.0525316 0.806382 0.66525 0.0
C_ C_ 0.3361 0.815869 0.661974 0.0
C_ C_ 0.309049 0.812392 0.634719 0.0
C_ C_ 0.0766887 0.829298 0.68699 0.0
C_ C_ 0.330115 0.84397 0.682062 0.0
C_ C_ 0.0918562 0.906612 0.762663 0.0
C_ C_ 0.0785903 0.876544 0.743993 0.0
C_ C_ 0.0561186 0.883056 0.715868 0.0
C_ C_ 0.0516724 0.917998 0.705853 0.0
C_ C_ 0.0607274 0.945988 0.726224 0.0
N_ N_ 0.184004 0.724887 0.571458 0.0
N_ N_ 0.123009 0.651562 0.634856 0.0
N_ N_ 0.0449437 0.604011 0.555 0.0
N_ N_ 0.0835066 0.690044 0.495661 0.0
N_ N_ 0.140834 0.528303 0.818723 0.0
N_ N_ 0.211826 0.60451 0.88029 0.0
N_ N_ 0.290095 0.647991 0.802812 0.0
N_ N_ 0.240676 0.56019 0.748942 0.0
N_ N_ 0.146967 0.776834 0.931968 0.0
N_ N_ 0.215092 0.852288 0.869102 0.0
N_ N_ 0.286728 0.897126 0.945428 0.0
N_ N_ 0.250943 0.806141 0.0009799999999999809 0.0
N_ N_ 0.192616 0.972288 0.679571 0.0
N_ N_ 0.1205 0.894554 0.619485 0.0
N_ N_ 0.0425738 0.85295 0.696284 0.0
N_ N_ 0.0875698 0.94084 0.75208 0.0
O_ O_ 0.130922 0.514547 0.716209 0.0
O_ O_ 0.0781125 0.533523 0.749782 0.0
O_ O_ 0.0377488 0.668747 0.638955 0.0
O_ O_ 0.198443 0.621346 0.646403 0.0
O_ O_ 0.267708 0.557356 0.676089 0.0
O_ O_ 0.310847 0.508889 0.681721 0.0
O_ O_ 0.287232 0.609148 0.56175 0.0
O_ O_ 0.120502 0.574307 0.551406 0.0
O_ O_ 0.202715 0.733186 0.967967 0.0
O_ O_ 0.254456 0.716084 0.503051 0.0
O_ O_ 0.300512 0.594582 0.888275 0.0
O_ O_ 0.142396 0.641549 0.884486 0.0
O_ O_ 0.0697253 0.694727 0.926504 0.0
O_ O_ 0.0281295 0.743547 0.932864 0.0
O_ O_ 0.045794 0.640754 0.810217 0.0
O_ O_ 0.2075 0.675617 0.801622 0.0
O_ O_ 0.20579 0.98352 0.783946 0.0
O_ O_ 0.257074 0.964502 0.748894 0.0
O_ O_ 0.290375 0.822839 0.854236 0.0
O_ O_ 0.132405 0.876221 0.860332 0.0
O_ O_ 0.0747189 0.949175 0.826246 0.0
O_ O_ 0.0237234 0.989874 0.814857 0.0
O_ O_ 0.0402946 0.883434 0.932478 0.0
O_ O_ 0.210691 0.931446 0.95248 0.0
O_ O_ 0.13081 0.76262 0.527766 0.0
O_ O_ 0.0785605 0.787009 -0.001631000000000049 0.0
O_ O_ 0.0344344 0.912769 0.611126 0.0
O_ O_ 0.189081 0.856532 0.616156 0.0
O_ O_ 0.261451 0.805234 0.577991 0.0
O_ O_ 0.314885 0.7639 0.565013 0.0
O_ O_ 0.293294 0.866765 0.679695 0.0
O_ O_ 0.129576 0.83364 0.691675 0.0
Cd Cd 0.560149 0.0121696 0.215018 0.0
Cd Cd 0.432944 0.235443 0.461723 0.0
Cd Cd 0.432904 0.487373 0.287542 0.0
Cd Cd 0.563676 0.260513 0.0349105 0.0
H_ H_ 0.369233 0.0947711 0.234233 0.0
H_ H_ 0.670751 0.131672 0.192593 0.0
H_ H_ 0.490548 0.0652283 0.176142 0.0
H_ H_ 0.506017 0.26191 0.0987517 0.0
H_ H_ 0.467311 0.220665 0.137054 0.0
H_ H_ 0.470417 0.136349 0.0714522 0.0
H_ H_ 0.519531 0.178103 0.0372419 0.0
H_ H_ 0.390359 0.0110992 0.145738 0.0
H_ H_ 0.431573 0.0230054 0.0938615 0.0
H_ H_ 0.602373 0.0716151 0.116694 0.0
H_ H_ 0.439851 0.148829 0.469461 0.0
H_ H_ 0.40164 0.0975977 0.99275 0.0
H_ H_ 0.355709 0.171686 0.0617347 0.0
H_ H_ 0.373453 0.21884 0.0251138 0.0
H_ H_ 0.643248 0.166234 0.477153 0.0
H_ H_ 0.306302 0.104597 0.466931 0.0
H_ H_ 0.497431 0.182959 0.430229 0.0
H_ H_ 0.497432 0.491788 0.348475 0.0
H_ H_ 0.551693 0.0376847 0.379317 0.0
H_ H_ 0.494766 0.119813 0.323393 0.0
H_ H_ 0.455277 0.0721413 0.290515 0.0
H_ H_ 0.596596 0.228505 0.406201 0.0
H_ H_ 0.548967 0.216123 0.357815 0.0
H_ H_ 0.391008 0.176382 0.366815 0.0
H_ H_ 0.547886 0.0990197 0.218073 0.0
H_ H_ 0.573103 0.149003 0.249384 0.0
H_ H_ 0.641491 0.078452 0.311094 0.0
H_ H_ 0.622808 0.031194 0.276582 0.0
H_ H_ 0.636506 0.410142 0.269048 0.0
H_ H_ 0.281664 0.345249 0.285894 0.0
H_ H_ 0.496943 0.431323 0.318956 0.0
H_ H_ 0.485131 0.23118 0.395312 0.0
H_ H_ 0.515401 0.273968 0.354993 0.0
H_ H_ 0.518278 0.359585 0.420345 0.0
H_ H_ 0.476673 0.316589 0.457207 0.0
H_ H_ 0.600477 0.483878 0.345333 0.0
H_ H_ 0.545791 0.460762 0.390591 0.0
H_ H_ 0.405014 0.423424 0.381976 0.0
H_ H_ 0.558629 0.348474 0.0336814 0.0
H_ H_ 0.582345 0.398032 0.501456 0.0
H_ H_ 0.642258 0.328542 0.434134 0.0
H_ H_ 0.627192 0.279196 0.470922 0.0
H_ H_ 0.353434 0.328148 0.0237904 0.0
H_ H_ 0.667168 0.378498 0.0600126 0.0
H_ H_ 0.503905 0.312293 0.0681752 0.0
H_ H_ 0.496271 0.00831754 0.153655 0.0
H_ H_ 0.478168 0.462256 0.113066 0.0
H_ H_ 0.488878 0.379383 0.177052 0.0
H_ H_ 0.53051 0.424535 0.212275 0.0
H_ H_ 0.394355 0.26843 0.102096 0.0
H_ H_ 0.450099 0.286887 0.146576 0.0
H_ H_ 0.608589 0.329279 0.127722 0.0
H_ H_ 0.453095 0.404872 0.281881 0.0
H_ H_ 0.430401 0.352658 0.251952 0.0
H_ H_ 0.352357 0.421564 0.188899 0.0
H_ H_ 0.380857 0.472479 0.222579 0.0
C_ C_ 0.436349 0.040534 0.225271 0.0
C_ C_ 0.426742 0.0715784 0.204994 0.0
C_ C_ 0.385812 0.0936397 0.210592 0.0
C_ C_ 0.369237 0.117153 0.187976 0.0
C_ C_ 0.391927 0.11745 0.159844 0.0
C_ C_ 0.437131 0.0989106 0.154987 0.0
C_ C_ 0.457649 0.0779237 0.178763 0.0
C_ C_ 0.466824 0.117375 0.134734 0.0
C_ C_ 0.396922 0.147194 0.142732 0.0
C_ C_ 0.498722 0.233637 0.0933344 0.0
C_ C_ 0.478718 0.210289 0.1148 0.0
C_ C_ 0.464443 0.175108 0.106393 0.0
C_ C_ 0.480313 0.163172 0.0784625 0.0
C_ C_ 0.507992 0.18714 0.0587017 0.0
C_ C_ 0.632771 0.0346227 0.166229 0.0
C_ C_ 0.664586 0.0442586 0.139589 0.0
C_ C_ 0.371673 0.0264046 0.128917 0.0
C_ C_ 0.394921 0.0336944 0.101307 0.0
C_ C_ 0.366086 0.0526301 0.0798209 0.0
C_ C_ 0.670614 0.0694148 0.0887608 0.0
C_ C_ 0.642281 0.0639144 0.115694 0.0
C_ C_ 0.389422 0.0731259 0.0566652 0.0
C_ C_ 0.665041 0.0947402 0.0681776 0.0
C_ C_ 0.422118 0.15484 0.490012 0.0
C_ C_ 0.399057 0.123915 0.0016051 0.0
C_ C_ 0.375882 0.130881 0.0304994 0.0
C_ C_ 0.373926 0.165361 0.0404504 0.0
C_ C_ 0.385518 0.19267 0.0206248 0.0
C_ C_ 0.561044 0.209657 0.476903 0.0
C_ C_ 0.568427 0.177058 0.457598 0.0
C_ C_ 0.615354 0.158309 0.460249 0.0
C_ C_ 0.626553 0.132596 0.439347 0.0
C_ C_ 0.587007 0.120926 0.419103 0.0
C_ C_ 0.538725 0.13687 0.417139 0.0
C_ C_ 0.530713 0.16696 0.434606 0.0
C_ C_ 0.519021 0.129528 0.388907 0.0
C_ C_ 0.593547 0.104736 0.392287 0.0
C_ C_ 0.506149 0.0212265 0.340087 0.0
C_ C_ 0.529845 0.0464557 0.360204 0.0
C_ C_ 0.530337 0.0824513 0.352516 0.0
C_ C_ 0.499109 0.0927306 0.328826 0.0
C_ C_ 0.474694 0.066802 0.30998 0.0
C_ C_ 0.360677 0.215052 0.413891 0.0
C_ C_ 0.330427 0.206868 0.386798 0.0
C_ C_ 0.61586 0.213762 0.387785 0.0
C_ C_ 0.586352 0.205545 0.361568 0.0
C_ C_ 0.613219 0.193644 0.335625 0.0
C_ C_ 0.33081 0.187283 0.336262 0.0
C_ C_ 0.355003 0.188356 0.363306 0.0
C_ C_ 0.589063 0.172183 0.313378 0.0
C_ C_ 0.335862 0.160603 0.315117 0.0
C_ C_ 0.563779 0.093563 0.240048 0.0
C_ C_ 0.580124 0.122294 0.257118 0.0
C_ C_ 0.611156 0.118724 0.282772 0.0
C_ C_ 0.622912 0.0847917 0.291417 0.0
C_ C_ 0.603601 0.055156 0.273989 0.0
C_ C_ 0.557716 0.455907 0.272561 0.0
C_ C_ 0.566033 0.425407 0.292457 0.0
C_ C_ 0.612414 0.406424 0.289494 0.0
C_ C_ 0.627883 0.384084 0.312411 0.0
C_ C_ 0.595654 0.379168 0.338113 0.0
C_ C_ 0.550048 0.397611 0.340417 0.0
C_ C_ 0.536687 0.421966 0.319076 0.0
C_ C_ 0.512454 0.374028 0.353223 0.0
C_ C_ 0.585435 0.346559 0.353284 0.0
C_ C_ 0.487525 0.260848 0.400514 0.0
C_ C_ 0.507545 0.28401 0.378151 0.0
C_ C_ 0.513146 0.320205 0.384167 0.0
C_ C_ 0.506276 0.332182 0.413288 0.0
C_ C_ 0.487653 0.308055 0.435956 0.0
C_ C_ 0.365684 0.463612 0.33621 0.0
C_ C_ 0.342269 0.454717 0.365598 0.0
C_ C_ 0.618272 0.469113 0.364104 0.0
C_ C_ 0.588617 0.459752 0.390195 0.0
C_ C_ 0.613662 0.443564 0.414866 0.0
C_ C_ 0.356368 0.437322 0.41797 0.0
C_ C_ 0.37374 0.438601 0.387948 0.0
C_ C_ 0.587919 0.421115 0.436461 0.0
C_ C_ 0.363204 0.409428 0.438192 0.0
C_ C_ 0.571642 0.344147 0.011321 0.0
C_ C_ 0.58638 0.371705 0.492943 0.0
C_ C_ 0.606991 0.367614 0.464829 0.0
C_ C_ 0.621051 0.332627 0.455148 0.0
C_ C_ 0.612427 0.304922 0.475333 0.0
C_ C_ 0.433651 0.282615 0.0238623 0.0
C_ C_ 0.429293 0.315714 0.0430309 0.0
C_ C_ 0.380196 0.333851 0.0409805 0.0
C_ C_ 0.372712 0.362059 0.0601877 0.0
C_ C_ 0.417046 0.376009 0.0779013 0.0
C_ C_ 0.463213 0.357351 0.0801194 0.0
C_ C_ 0.468354 0.32686 0.063942 0.0
C_ C_ 0.486742 0.367045 0.107582 0.0
C_ C_ 0.413356 0.39392 0.105265 0.0
C_ C_ 0.501362 0.480323 0.156988 0.0
C_ C_ 0.48575 0.455271 0.135125 0.0
C_ C_ 0.477775 0.417944 0.143128 0.0
C_ C_ 0.496468 0.407323 0.170259 0.0
C_ C_ 0.516008 0.432887 0.191505 0.0
C_ C_ 0.638383 0.285565 0.0825661 0.0
C_ C_ 0.667712 0.296464 0.108815 0.0
C_ C_ 0.380938 0.28943 0.116245 0.0
C_ C_ 0.410215 0.297532 0.142559 0.0
C_ C_ 0.383065 0.309803 0.166461 0.0
C_ C_ 0.669968 0.318589 0.160553 0.0
C_ C_ 0.644229 0.314611 0.132906 0.0
C_ C_ 0.404884 0.328255 0.191297 0.0
C_ C_ 0.66544 0.345828 0.180122 0.0
C_ C_ 0.433587 0.409473 0.261674 0.0
C_ C_ 0.41735 0.379038 0.245873 0.0
C_ C_ 0.385153 0.382296 0.219813 0.0
C_ C_ 0.376923 0.417351 0.209476 0.0
C_ C_ 0.389347 0.446276 0.228511 0.0
N_ N_ 0.51942 0.221281 0.0674592 0.0
N_ N_ 0.445754 0.148555 0.128634 0.0
N_ N_ 0.360733 0.101788 0.0508015 0.0
N_ N_ 0.410349 0.186517 0.993728 0.0
N_ N_ 0.483907 0.0311715 0.314267 0.0
N_ N_ 0.552105 0.109245 0.374034 0.0
N_ N_ 0.624223 0.149637 0.302258 0.0
N_ N_ 0.573677 0.0597921 0.249073 0.0
N_ N_ 0.475464 0.272927 0.428657 0.0
N_ N_ 0.533912 0.343999 0.361701 0.0
N_ N_ 0.622992 0.398811 0.447245 0.0
N_ N_ 0.588094 0.309738 0.502429 0.0
N_ N_ 0.518333 0.468194 0.183883 0.0
N_ N_ 0.456277 0.390331 0.122078 0.0
N_ N_ 0.369144 0.351216 0.202211 0.0
N_ N_ 0.420338 0.442695 0.253347 0.0
O_ O_ 0.463992 0.0155155 0.21655 0.0
O_ O_ 0.408972 0.0360763 0.249076 0.0
O_ O_ 0.375826 0.17762 0.148289 0.0
O_ O_ 0.518208 0.112739 0.129511 0.0
O_ O_ 0.59241 0.0527355 0.173265 0.0
O_ O_ 0.641377 0.00827834 0.18335 0.0
O_ O_ 0.631546 0.119349 0.0720381 0.0
O_ O_ 0.436775 0.0698377 0.0469446 0.0
O_ O_ 0.531766 0.233463 0.469759 0.0
O_ O_ 0.593005 0.217359 -0.0006610000000000227 0.0
O_ O_ 0.640802 0.0992818 0.381983 0.0
O_ O_ 0.489013 0.151308 0.373616 0.0
O_ O_ 0.401376 0.198197 0.420917 0.0
O_ O_ 0.3477 0.238773 0.432316 0.0
O_ O_ 0.381427 0.150498 0.307104 0.0
O_ O_ 0.553975 0.185281 0.295068 0.0
O_ O_ 0.530447 0.480332 0.281488 0.0
O_ O_ 0.582635 0.459569 0.248107 0.0
O_ O_ 0.609725 0.317749 0.345116 0.0
O_ O_ 0.460305 0.377719 0.349846 0.0
O_ O_ 0.400964 0.445083 0.325757 0.0
O_ O_ 0.35901 0.49349 0.324089 0.0
O_ O_ 0.410374 0.400078 0.444059 0.0
O_ O_ 0.546099 0.429901 0.45121 0.0
O_ O_ 0.464087 0.259131 0.0325993 0.0
O_ O_ 0.411991 0.284378 0.495012 0.0
O_ O_ 0.385459 0.421058 0.108342 0.0
O_ O_ 0.540323 0.368557 0.112307 0.0
O_ O_ 0.601103 0.303669 0.0737357 0.0
O_ O_ 0.64119 0.255487 0.0707694 0.0
O_ O_ 0.627181 0.36827 0.178795 0.0
O_ O_ 0.431769 0.308686 0.210294 0.0
Cd Cd 0.566115 0.0128657 0.713939 0.0
Cd Cd 0.436103 0.236851 0.961773 0.0
Cd Cd 0.431906 0.486672 0.788237 0.0
Cd Cd 0.567403 0.260681 0.535395 0.0
H_ H_ 0.431336 0.102969 0.747615 0.0
H_ H_ 0.666464 0.12689 0.688455 0.0
H_ H_ 0.45456 0.048637 0.666185 0.0
H_ H_ 0.479102 0.24746 0.582208 0.0
H_ H_ 0.4326 0.201568 0.614186 0.0
H_ H_ 0.577042 0.143442 0.609221 0.0
H_ H_ 0.605049 0.18326 0.565387 0.0
H_ H_ 0.380191 0.0006999999999999229 0.642262 0.0
H_ H_ 0.443784 0.0235007 0.600389 0.0
H_ H_ 0.615532 0.0877569 0.622009 0.0
H_ H_ 0.419756 0.147395 0.959213 0.0
H_ H_ 0.423134 0.100486 0.507542 0.0
H_ H_ 0.378173 0.181046 0.568476 0.0
H_ H_ 0.384742 0.22592 0.527913 0.0
H_ H_ 0.644307 0.162743 0.981584 0.0
H_ H_ 0.284886 0.0952525 0.966494 0.0
H_ H_ 0.490758 0.174607 0.939929 0.0
H_ H_ 0.505143 0.48995 0.847422 0.0
H_ H_ 0.539755 0.0358413 0.885084 0.0
H_ H_ 0.495149 0.120239 0.82786 0.0
H_ H_ 0.468129 0.0738024 0.787909 0.0
H_ H_ 0.596962 0.228638 0.904918 0.0
H_ H_ 0.545588 0.218441 0.854074 0.0
H_ H_ 0.415855 0.183013 0.859134 0.0
H_ H_ 0.544722 0.0958383 0.719122 0.0
H_ H_ 0.582552 0.149239 0.744828 0.0
H_ H_ 0.644908 0.0800571 0.813476 0.0
H_ H_ 0.623486 0.0306707 0.778741 0.0
H_ H_ 0.645416 0.421945 0.773621 0.0
H_ H_ 0.218596 0.337207 0.771293 0.0
H_ H_ 0.490119 0.423071 0.811331 0.0
H_ H_ 0.510457 0.242423 0.906918 0.0
H_ H_ 0.559229 0.284368 0.876336 0.0
H_ H_ 0.4809 0.370409 0.921347 0.0
H_ H_ 0.448882 0.323349 0.958088 0.0
H_ H_ 0.60016 0.481285 0.845096 0.0
H_ H_ 0.545948 0.460526 0.892254 0.0
H_ H_ 0.395961 0.423308 0.884463 0.0
H_ H_ 0.563317 0.347543 0.535499 0.0
H_ H_ 0.576752 0.401304 1.000826241 0.0
H_ H_ 0.628633 0.331537 0.932317 0.0
H_ H_ 0.617284 0.280509 0.969051 0.0
H_ H_ 0.442364 0.350561 0.489865 0.0
H_ H_ 0.67368 0.383729 0.555065 0.0
H_ H_ 0.446043 0.303901 0.579109 0.0
H_ H_ 0.506151 0.00763521 0.649984 0.0
H_ H_ 0.463795 0.468812 0.612847 0.0
H_ H_ 0.567078 0.391702 0.646752 0.0
H_ H_ 0.582762 0.428211 0.68975 0.0
H_ H_ 0.367239 0.243082 0.618597 0.0
H_ H_ 0.407284 0.253711 0.665832 0.0
H_ H_ 0.613793 0.332481 0.627373 0.0
H_ H_ 0.348565 0.420729 0.785209 0.0
H_ H_ 0.323467 0.367446 0.75411 0.0
H_ H_ 0.454007 0.400074 0.693994 0.0
H_ H_ 0.483873 0.445894 0.731043 0.0
C_ C_ 0.446227 0.0384289 0.725941 0.0
C_ C_ 0.440991 0.0719403 0.7085 0.0
C_ C_ 0.430185 0.102726 0.724047 0.0
C_ C_ 0.428884 0.135113 0.710066 0.0
C_ C_ 0.432687 0.134522 0.677264 0.0
C_ C_ 0.437609 0.103712 0.66154 0.0
C_ C_ 0.439562 0.0716314 0.676755 0.0
C_ C_ 0.468585 0.112873 0.637355 0.0
C_ C_ 0.458458 0.161199 0.661921 0.0
C_ C_ 0.493668 0.22149 0.58421 0.0
C_ C_ 0.471782 0.197184 0.605482 0.0
C_ C_ 0.499011 0.16731 0.612689 0.0
C_ C_ 0.549686 0.163183 0.599903 0.0
C_ C_ 0.565478 0.184708 0.575001 0.0
C_ C_ 0.633778 0.0380564 0.665922 0.0
C_ C_ 0.666814 0.0477172 0.639882 0.0
C_ C_ 0.36841 0.0203662 0.627665 0.0
C_ C_ 0.401747 0.0309014 0.602173 0.0
C_ C_ 0.380846 0.0547924 0.581664 0.0
C_ C_ 0.66988 0.0697586 0.588922 0.0
C_ C_ 0.646388 0.0690169 0.617479 0.0
C_ C_ 0.412782 0.0819421 0.566036 0.0
C_ C_ 0.666249 0.096934 0.569385 0.0
C_ C_ 0.409322 0.152055 0.982572 0.0
C_ C_ 0.413565 0.127647 0.511342 0.0
C_ C_ 0.392122 0.137195 0.539497 0.0
C_ C_ 0.385768 0.172065 0.545676 0.0
C_ C_ 0.393235 0.197596 0.523778 0.0
C_ C_ 0.561346 0.20927 0.977607 0.0
C_ C_ 0.567465 0.176707 0.960216 0.0
C_ C_ 0.614494 0.157801 0.963282 0.0
C_ C_ 0.627301 0.132317 0.94055 0.0
C_ C_ 0.584241 0.119004 0.922789 0.0
C_ C_ 0.534096 0.13273 0.924911 0.0
C_ C_ 0.527056 0.163486 0.941743 0.0
C_ C_ 0.510043 0.125975 0.896546 0.0
C_ C_ 0.588051 0.105382 0.894007 0.0
C_ C_ 0.499188 0.0199508 0.842779 0.0
C_ C_ 0.523307 0.0448448 0.863771 0.0
C_ C_ 0.519853 0.0810961 0.857975 0.0
C_ C_ 0.497508 0.0917433 0.831422 0.0
C_ C_ 0.477755 0.0648382 0.809909 0.0
C_ C_ 0.375488 0.214647 0.909558 0.0
C_ C_ 0.346034 0.204554 0.880963 0.0
C_ C_ 0.615615 0.216454 0.886002 0.0
C_ C_ 0.586075 0.207424 0.859044 0.0
C_ C_ 0.612947 0.193403 0.835702 0.0
C_ C_ 0.347786 0.187309 0.829144 0.0
C_ C_ 0.374985 0.190538 0.85714 0.0
C_ C_ 0.589916 0.172623 0.812557 0.0
C_ C_ 0.354946 0.162286 0.807419 0.0
C_ C_ 0.563141 0.0926114 0.740694 0.0
C_ C_ 0.581827 0.122785 0.757047 0.0
C_ C_ 0.608108 0.118369 0.7847 0.0
C_ C_ 0.617637 0.083197 0.794469 0.0
C_ C_ 0.603343 0.0547416 0.774622 0.0
C_ C_ 0.557942 0.458686 0.772838 0.0
C_ C_ 0.569511 0.429562 0.794365 0.0
C_ C_ 0.61531 0.411678 0.789516 0.0
C_ C_ 0.625285 0.381197 0.808691 0.0
C_ C_ 0.584295 0.366537 0.827572 0.0
C_ C_ 0.536225 0.38239 0.829007 0.0
C_ C_ 0.527291 0.413315 0.812107 0.0
C_ C_ 0.51446 0.375751 0.856607 0.0
C_ C_ 0.589389 0.3515 0.85576 0.0
C_ C_ 0.505962 0.270521 0.909908 0.0
C_ C_ 0.5348 0.294716 0.892402 0.0
C_ C_ 0.528629 0.332185 0.896001 0.0
C_ C_ 0.492635 0.343115 0.919122 0.0
C_ C_ 0.471289 0.316741 0.939043 0.0
C_ C_ 0.368238 0.46767 0.839809 0.0
C_ C_ 0.342457 0.463258 0.869503 0.0
C_ C_ 0.616223 0.465447 0.862496 0.0
C_ C_ 0.585917 0.455488 0.888684 0.0
C_ C_ 0.612074 0.442765 0.913531 0.0
C_ C_ 0.33569 0.43119 0.916682 0.0
C_ C_ 0.361299 0.438731 0.889595 0.0
C_ C_ 0.587416 0.420363 0.935076 0.0
C_ C_ 0.337051 0.398941 0.932231 0.0
C_ C_ 0.578189 0.34396 0.512476 0.0
C_ C_ 0.584574 0.37376 0.993873 0.0
C_ C_ 0.608343 0.368929 0.965665 0.0
C_ C_ 0.61771 0.335051 0.956218 0.0
C_ C_ 0.601493 0.306081 0.974886 0.0
C_ C_ 0.439613 0.288605 0.518555 0.0
C_ C_ 0.443242 0.322698 0.532644 0.0
C_ C_ 0.441196 0.353769 0.514749 0.0
C_ C_ 0.448993 0.387364 0.528487 0.0
C_ C_ 0.447253 0.389682 0.560242 0.0
C_ C_ 0.443101 0.359756 0.578278 0.0
C_ C_ 0.445522 0.326044 0.564815 0.0
C_ C_ 0.468033 0.368257 0.605801 0.0
C_ C_ 0.478265 0.414166 0.576849 0.0
C_ C_ 0.499867 0.480252 0.655989 0.0
C_ C_ 0.483204 0.458494 0.63201 0.0
C_ C_ 0.50343 0.424662 0.629564 0.0
C_ C_ 0.539719 0.413552 0.650801 0.0
C_ C_ 0.551257 0.434896 0.675569 0.0
C_ C_ 0.63507 0.286769 0.582356 0.0
C_ C_ 0.666363 0.295201 0.610186 0.0
C_ C_ 0.359243 0.269247 0.628376 0.0
C_ C_ 0.386021 0.275658 0.655375 0.0
C_ C_ 0.391356 0.311082 0.665524 0.0
C_ C_ 0.670143 0.319191 0.661044 0.0
C_ C_ 0.64636 0.318495 0.632509 0.0
C_ C_ 0.394382 0.322144 0.695932 0.0
C_ C_ 0.666324 0.346577 0.681242 0.0
C_ C_ 0.369859 0.415317 0.764743 0.0
C_ C_ 0.35768 0.385062 0.747787 0.0
C_ C_ 0.388743 0.380075 0.721484 0.0
C_ C_ 0.430403 0.403315 0.714218 0.0
C_ C_ 0.445676 0.431032 0.733264 0.0
N_ N_ 0.536442 0.212658 0.567 0.0
N_ N_ 0.48463 0.147799 0.63873 0.0
N_ N_ 0.385402 0.111582 0.563317 0.0
N_ N_ 0.413076 0.18925 0.496302 0.0
N_ N_ 0.479702 0.0303197 0.816762 0.0
N_ N_ 0.543074 0.108155 0.877763 0.0
N_ N_ 0.622415 0.148541 0.802752 0.0
N_ N_ 0.571672 0.0593678 0.750849 0.0
N_ N_ 0.477714 0.280756 0.93293 0.0
N_ N_ 0.548144 0.357086 0.87358 0.0
N_ N_ 0.621922 0.399434 0.946863 0.0
N_ N_ 0.581464 0.310339 0.00308851 0.0
N_ N_ 0.528376 0.467438 0.679444 0.0
N_ N_ 0.490393 0.401355 0.604268 0.0
N_ N_ 0.370765 0.354218 0.69993 0.0
N_ N_ 0.414178 0.437482 0.756877 0.0
O_ O_ 0.468831 0.0130769 0.714517 0.0
O_ O_ 0.417417 0.0329686 0.749967 0.0
O_ O_ 0.478305 0.190779 0.675786 0.0
O_ O_ 0.499379 0.0906059 0.624876 0.0
O_ O_ 0.591265 0.0530437 0.671793 0.0
O_ O_ 0.646318 0.0131428 0.683828 0.0
O_ O_ 0.620283 0.106702 0.558671 0.0
O_ O_ 0.463778 0.0840058 0.568355 0.0
O_ O_ 0.535215 0.232685 0.96629 0.0
O_ O_ 0.589439 0.214359 0.49975 0.0
O_ O_ 0.628061 0.0848373 0.884753 0.0
O_ O_ 0.458413 0.124916 0.893713 0.0
O_ O_ 0.41092 0.196156 0.919228 0.0
O_ O_ 0.364284 0.241157 0.924865 0.0
O_ O_ 0.391438 0.140291 0.806307 0.0
O_ O_ 0.549616 0.183008 0.796057 0.0
O_ O_ 0.535059 0.485306 0.782624 0.0
O_ O_ 0.585663 0.462151 0.749373 0.0
O_ O_ 0.63766 0.347599 0.86745 0.0
O_ O_ 0.475739 0.392429 0.86803 0.0
O_ O_ 0.415109 0.458596 0.836584 0.0
O_ O_ 0.349626 0.483586 0.81898 0.0
O_ O_ 0.367938 0.37476 0.924506 0.0
O_ O_ 0.543428 0.426302 0.948951 0.0
O_ O_ 0.466592 0.263177 0.528087 0.0
O_ O_ 0.407605 0.278443 0.999638 0.0
O_ O_ 0.50511 0.441385 0.565081 0.0
O_ O_ 0.48809 0.34297 0.62165 0.0
O_ O_ 0.595312 0.303108 0.576061 0.0
O_ O_ 0.649786 0.263201 0.564337 0.0
O_ O_ 0.619157 0.354611 0.691749 0.0
O_ O_ 0.388937 0.298147 0.717166 0.0
Cd Cd 0.564536 0.509754 0.215145 0.0
Cd Cd 0.436698 0.738597 0.464507 0.0
Cd Cd 0.43806 0.986959 0.284575 0.0
Cd Cd 0.563201 0.761375 0.035508 0.0
H_ H_ 0.351418 0.581533 0.226626 0.0
H_ H_ 0.668743 0.629709 0.190963 0.0
H_ H_ 0.499988 0.566752 0.181224 0.0
H_ H_ 0.505877 0.757717 0.0990634 0.0
H_ H_ 0.455016 0.714764 0.132609 0.0
H_ H_ 0.494723 0.630315 0.0728834 0.0
H_ H_ 0.538839 0.675182 0.0392013 0.0
H_ H_ 0.401901 0.518373 0.155398 0.0
H_ H_ 0.455367 0.537492 0.109518 0.0
H_ H_ 0.604211 0.574548 0.1188 0.0
H_ H_ 0.452224 0.653657 0.468237 0.0
H_ H_ 0.422505 0.601154 0.998798 0.0
H_ H_ 0.351737 0.669719 0.0619778 0.0
H_ H_ 0.381315 0.72075 0.0309794 0.0
H_ H_ 0.652066 0.67434 0.471549 0.0
H_ H_ 0.320715 0.618175 0.447647 0.0
H_ H_ 0.503152 0.686001 0.428291 0.0
H_ H_ 0.507983 0.99313 0.345224 0.0
H_ H_ 0.545005 0.53403 0.382309 0.0
H_ H_ 0.495385 0.619646 0.326459 0.0
H_ H_ 0.461912 0.574856 0.288561 0.0
H_ H_ 0.600025 0.7347 0.402293 0.0
H_ H_ 0.547172 0.717516 0.357238 0.0
H_ H_ 0.396723 0.676682 0.368421 0.0
H_ H_ 0.559806 0.597009 0.215661 0.0
H_ H_ 0.575113 0.649029 0.249289 0.0
H_ H_ 0.646142 0.58 0.31193 0.0
H_ H_ 0.621106 0.528624 0.279739 0.0
H_ H_ 0.644887 0.916701 0.271128 0.0
H_ H_ 0.322812 0.862084 0.298206 0.0
H_ H_ 0.499772 0.933399 0.319082 0.0
H_ H_ 0.503923 0.741346 0.403303 0.0
H_ H_ 0.548643 0.784892 0.369114 0.0
H_ H_ 0.50464 0.870166 0.427292 0.0
H_ H_ 0.458529 0.825019 0.460525 0.0
H_ H_ 0.597134 0.984208 0.347765 0.0
H_ H_ 0.547067 0.96773 0.392731 0.0
H_ H_ 0.391883 0.921272 0.379845 0.0
H_ H_ 0.560152 0.846829 0.0341314 0.0
H_ H_ 0.577186 0.898851 0.501126 0.0
H_ H_ 0.64005 0.829123 0.435238 0.0
H_ H_ 0.615172 0.778227 0.468188 0.0
H_ H_ 0.351955 0.830006 0.0235862 0.0
H_ H_ 0.664976 0.871914 0.0654958 0.0
H_ H_ 0.498892 0.815178 0.0702528 0.0
H_ H_ 0.500395 0.508413 0.152338 0.0
H_ H_ 0.455477 0.964791 0.117439 0.0
H_ H_ 0.499181 0.879969 0.175644 0.0
H_ H_ 0.53885 0.925225 0.2109 0.0
H_ H_ 0.402979 0.77026 0.0952161 0.0
H_ H_ 0.455113 0.786785 0.141306 0.0
H_ H_ 0.604364 0.824876 0.131063 0.0
H_ H_ 0.445366 0.903364 0.28328 0.0
H_ H_ 0.423131 0.850974 0.251095 0.0
H_ H_ 0.360554 0.920902 0.185192 0.0
H_ H_ 0.381605 0.971767 0.219611 0.0
C_ C_ 0.43868 0.539998 0.227052 0.0
C_ C_ 0.42932 0.570771 0.207483 0.0
C_ C_ 0.381853 0.588822 0.210019 0.0
C_ C_ 0.372918 0.617352 0.190542 0.0
C_ C_ 0.414437 0.63051 0.171853 0.0
C_ C_ 0.4608 0.613273 0.169669 0.0
C_ C_ 0.466734 0.581574 0.185219 0.0
C_ C_ 0.481436 0.620719 0.141473 0.0
C_ C_ 0.408884 0.648598 0.145016 0.0
C_ C_ 0.497609 0.730298 0.0920919 0.0
C_ C_ 0.472407 0.705623 0.111814 0.0
C_ C_ 0.471479 0.669032 0.105206 0.0
C_ C_ 0.49651 0.658066 0.0790275 0.0
C_ C_ 0.51981 0.683656 0.0593936 0.0
C_ C_ 0.634705 0.53623 0.167278 0.0
C_ C_ 0.665401 0.544726 0.139664 0.0
C_ C_ 0.384406 0.533773 0.136493 0.0
C_ C_ 0.413353 0.541779 0.110068 0.0
C_ C_ 0.387771 0.557109 0.0859562 0.0
C_ C_ 0.669945 0.568029 0.0889766 0.0
C_ C_ 0.642605 0.56379 0.116129 0.0
C_ C_ 0.413024 0.579403 0.0648629 0.0
C_ C_ 0.666112 0.596676 0.0696897 0.0
C_ C_ 0.430381 0.657225 0.489051 0.0
C_ C_ 0.416542 0.62753 0.00700845 0.0
C_ C_ 0.392127 0.632198 0.0347975 0.0
C_ C_ 0.380366 0.666644 0.0436273 0.0
C_ C_ 0.394123 0.695648 0.0247575 0.0
C_ C_ 0.56132 0.710002 0.477052 0.0
C_ C_ 0.57068 0.679229 0.457483 0.0
C_ C_ 0.618147 0.661178 0.460019 0.0
C_ C_ 0.627082 0.632648 0.440542 0.0
C_ C_ 0.585563 0.61949 0.421853 0.0
C_ C_ 0.5392 0.636727 0.419669 0.0
C_ C_ 0.533266 0.668426 0.435219 0.0
C_ C_ 0.518564 0.629281 0.391473 0.0
C_ C_ 0.591116 0.601402 0.395016 0.0
C_ C_ 0.502391 0.519702 0.342092 0.0
C_ C_ 0.527593 0.544377 0.361814 0.0
C_ C_ 0.528521 0.580968 0.355206 0.0
C_ C_ 0.50349 0.591934 0.329027 0.0
C_ C_ 0.48019 0.566344 0.309394 0.0
C_ C_ 0.365295 0.71377 0.417278 0.0
C_ C_ 0.334599 0.705274 0.389664 0.0
C_ C_ 0.615594 0.716227 0.386493 0.0
C_ C_ 0.586647 0.708221 0.360068 0.0
C_ C_ 0.612229 0.692891 0.335956 0.0
C_ C_ 0.330055 0.681971 0.338977 0.0
C_ C_ 0.357395 0.68621 0.366129 0.0
C_ C_ 0.586976 0.670597 0.314863 0.0
C_ C_ 0.333888 0.653324 0.31969 0.0
C_ C_ 0.569619 0.592775 0.239051 0.0
C_ C_ 0.583458 0.62247 0.257008 0.0
C_ C_ 0.607873 0.617802 0.284798 0.0
C_ C_ 0.619634 0.583356 0.293627 0.0
C_ C_ 0.605877 0.554352 0.274758 0.0
C_ C_ 0.56132 0.960002 0.272948 0.0
C_ C_ 0.57068 0.929229 0.292517 0.0
C_ C_ 0.618147 0.911178 0.289981 0.0
C_ C_ 0.627082 0.882648 0.309458 0.0
C_ C_ 0.585563 0.86949 0.328147 0.0
C_ C_ 0.5392 0.886727 0.330331 0.0
C_ C_ 0.533266 0.918426 0.314781 0.0
C_ C_ 0.518564 0.879281 0.358527 0.0
C_ C_ 0.591116 0.851402 0.354984 0.0
C_ C_ 0.502391 0.769702 0.407908 0.0
C_ C_ 0.527593 0.794377 0.388186 0.0
C_ C_ 0.528521 0.830968 0.394794 0.0
C_ C_ 0.50349 0.841934 0.420973 0.0
C_ C_ 0.48019 0.816344 0.440606 0.0
C_ C_ 0.365295 0.96377 0.332722 0.0
C_ C_ 0.334599 0.955274 0.360336 0.0
C_ C_ 0.615594 0.966227 0.363507 0.0
C_ C_ 0.586647 0.958221 0.389932 0.0
C_ C_ 0.612229 0.942891 0.414044 0.0
C_ C_ 0.330055 0.931971 0.411023 0.0
C_ C_ 0.357395 0.93621 0.383871 0.0
C_ C_ 0.586976 0.920597 0.435137 0.0
C_ C_ 0.333888 0.903324 0.43031 0.0
C_ C_ 0.569619 0.842775 0.010949 0.0
C_ C_ 0.583458 0.87247 0.492992 0.0
C_ C_ 0.607873 0.867802 0.465202 0.0
C_ C_ 0.619634 0.833356 0.456373 0.0
C_ C_ 0.605877 0.804352 0.475242 0.0
C_ C_ 0.43868 0.789998 0.0229477 0.0
C_ C_ 0.42932 0.820771 0.0425173 0.0
C_ C_ 0.381853 0.838822 0.0399812 0.0
C_ C_ 0.372918 0.867352 0.0594584 0.0
C_ C_ 0.414437 0.88051 0.0781469 0.0
C_ C_ 0.4608 0.863273 0.0803307 0.0
C_ C_ 0.466734 0.831574 0.0647812 0.0
C_ C_ 0.481436 0.870719 0.108527 0.0
C_ C_ 0.408884 0.898598 0.104984 0.0
C_ C_ 0.497609 0.980298 0.157908 0.0
C_ C_ 0.472407 0.955623 0.138186 0.0
C_ C_ 0.471479 0.919032 0.144794 0.0
C_ C_ 0.49651 0.908066 0.170973 0.0
C_ C_ 0.51981 0.933656 0.190606 0.0
C_ C_ 0.634705 0.78623 0.0827219 0.0
C_ C_ 0.665401 0.794726 0.110336 0.0
C_ C_ 0.384406 0.783773 0.113507 0.0
C_ C_ 0.413353 0.791779 0.139932 0.0
C_ C_ 0.387771 0.807109 0.164044 0.0
C_ C_ 0.669945 0.818029 0.161023 0.0
C_ C_ 0.642605 0.81379 0.133871 0.0
C_ C_ 0.413024 0.829403 0.185137 0.0
C_ C_ 0.666112 0.846676 0.18031 0.0
C_ C_ 0.430381 0.907225 0.260949 0.0
C_ C_ 0.416542 0.87753 0.242992 0.0
C_ C_ 0.392127 0.882198 0.215202 0.0
C_ C_ 0.380366 0.916644 0.206373 0.0
C_ C_ 0.394123 0.945648 0.225242 0.0
N_ N_ 0.519601 0.719087 0.066102 0.0
N_ N_ 0.450277 0.642872 0.126543 0.0
N_ N_ 0.378193 0.601806 0.0536496 0.0
N_ N_ 0.420902 0.690701 0.9986 0.0
N_ N_ 0.480399 0.530913 0.316102 0.0
N_ N_ 0.549723 0.607128 0.376543 0.0
N_ N_ 0.621807 0.648194 0.30365 0.0
N_ N_ 0.579098 0.559299 0.2486 0.0
N_ N_ 0.480399 0.780913 0.433898 0.0
N_ N_ 0.549723 0.857128 0.373457 0.0
N_ N_ 0.621807 0.898194 0.44635 0.0
N_ N_ 0.579098 0.809299 0.5014 0.0
N_ N_ 0.519601 0.969087 0.183898 0.0
N_ N_ 0.450277 0.892872 0.123457 0.0
N_ N_ 0.378193 0.851806 0.19635 0.0
N_ N_ 0.420902 0.940701 0.2514 0.0
O_ O_ 0.465517 0.514997 0.217173 0.0
O_ O_ 0.410651 0.534476 0.250578 0.0
O_ O_ 0.362123 0.655721 0.134274 0.0
O_ O_ 0.532653 0.620132 0.13586 0.0
O_ O_ 0.59232 0.551058 0.172831 0.0
O_ O_ 0.645557 0.510599 0.184197 0.0
O_ O_ 0.620206 0.605994 0.059287 0.0
O_ O_ 0.454156 0.569983 0.0492879 0.0
O_ O_ 0.534483 0.735003 0.467173 0.0
O_ O_ 0.589349 0.715524 0.000578323 0.0
O_ O_ 0.637877 0.594279 0.384274 0.0
O_ O_ 0.467347 0.629868 0.38586 0.0
O_ O_ 0.40768 0.698942 0.422831 0.0
O_ O_ 0.354443 0.739401 0.434197 0.0
O_ O_ 0.379794 0.644007 0.309287 0.0
O_ O_ 0.545844 0.680017 0.299288 0.0
O_ O_ 0.534483 0.985003 0.282827 0.0
O_ O_ 0.589349 0.965524 0.249422 0.0
O_ O_ 0.637877 0.844279 0.365726 0.0
O_ O_ 0.467347 0.879868 0.36414 0.0
O_ O_ 0.40768 0.948942 0.327169 0.0
O_ O_ 0.354443 0.989401 0.315803 0.0
O_ O_ 0.379794 0.894007 0.440713 0.0
O_ O_ 0.545844 0.930017 0.450712 0.0
O_ O_ 0.465517 0.764997 0.032827 0.0
O_ O_ 0.410651 0.784476 0.499422 0.0
O_ O_ 0.362123 0.905721 0.115726 0.0
O_ O_ 0.532653 0.870132 0.11414 0.0
O_ O_ 0.59232 0.801058 0.0771694 0.0
O_ O_ 0.645557 0.760599 0.0658027 0.0
O_ O_ 0.620206 0.855994 0.190713 0.0
O_ O_ 0.454156 0.819983 0.200712 0.0
Cd Cd 0.563502 0.511719 0.71467 0.0
Cd Cd 0.436498 0.738281 0.96467 0.0
Cd Cd 0.436498 0.988281 0.78533 0.0
Cd Cd 0.563502 0.761719 0.53533 0.0
H_ H_ 0.351294 0.579745 0.725897 0.0
H_ H_ 0.668104 0.629013 0.690298 0.0
H_ H_ 0.498892 0.565178 0.679747 0.0
H_ H_ 0.500395 0.758413 0.597662 0.0
H_ H_ 0.455477 0.714791 0.632561 0.0
H_ H_ 0.499181 0.629969 0.574356 0.0
H_ H_ 0.53885 0.675225 0.5391 0.0
H_ H_ 0.402979 0.52026 0.654784 0.0
H_ H_ 0.455113 0.536785 0.608694 0.0
H_ H_ 0.604364 0.574876 0.618937 0.0
H_ H_ 0.445366 0.653364 0.96672 0.0
H_ H_ 0.423131 0.600974 0.498905 0.0
H_ H_ 0.360554 0.670902 0.564808 0.0
H_ H_ 0.381605 0.721767 0.530389 0.0
H_ H_ 0.648706 0.670255 0.975897 0.0
H_ H_ 0.331896 0.620987 0.940298 0.0
H_ H_ 0.501108 0.684822 0.929747 0.0
H_ H_ 0.499605 0.991587 0.847662 0.0
H_ H_ 0.544523 0.535209 0.882561 0.0
H_ H_ 0.500819 0.620031 0.824356 0.0
H_ H_ 0.46115 0.574775 0.7891 0.0
H_ H_ 0.597021 0.72974 0.904784 0.0
H_ H_ 0.544887 0.713215 0.858694 0.0
H_ H_ 0.395636 0.675124 0.868937 0.0
H_ H_ 0.554634 0.596636 0.71672 0.0
H_ H_ 0.576869 0.649026 0.748905 0.0
H_ H_ 0.639446 0.579098 0.814808 0.0
H_ H_ 0.618395 0.528233 0.780389 0.0
H_ H_ 0.648706 0.920255 0.774103 0.0
H_ H_ 0.331896 0.870987 0.809702 0.0
H_ H_ 0.501108 0.934822 0.820253 0.0
H_ H_ 0.499605 0.741587 0.902338 0.0
H_ H_ 0.544523 0.785209 0.867439 0.0
H_ H_ 0.500819 0.870031 0.925644 0.0
H_ H_ 0.46115 0.824775 0.9609 0.0
H_ H_ 0.597021 0.97974 0.845216 0.0
H_ H_ 0.544887 0.963215 0.891306 0.0
H_ H_ 0.395636 0.925124 0.881063 0.0
H_ H_ 0.554634 0.846636 0.53328 0.0
H_ H_ 0.576869 0.899026 0.00109454 0.0
H_ H_ 0.639446 0.829098 0.935192 0.0
H_ H_ 0.618395 0.778233 0.969611 0.0
H_ H_ 0.351294 0.829745 0.524103 0.0
H_ H_ 0.668104 0.879013 0.559702 0.0
H_ H_ 0.498892 0.815178 0.570253 0.0
H_ H_ 0.500395 0.508413 0.652338 0.0
H_ H_ 0.455477 0.964791 0.617439 0.0
H_ H_ 0.499181 0.879969 0.675644 0.0
H_ H_ 0.53885 0.925225 0.7109 0.0
H_ H_ 0.402979 0.77026 0.595216 0.0
H_ H_ 0.455113 0.786785 0.641306 0.0
H_ H_ 0.604364 0.824876 0.631063 0.0
H_ H_ 0.445366 0.903364 0.78328 0.0
H_ H_ 0.423131 0.850974 0.751095 0.0
H_ H_ 0.360554 0.920902 0.685192 0.0
H_ H_ 0.381605 0.971767 0.719611 0.0
C_ C_ 0.43868 0.539998 0.727052 0.0
C_ C_ 0.42932 0.570771 0.707483 0.0
C_ C_ 0.381853 0.588822 0.710019 0.0
C_ C_ 0.372918 0.617352 0.690542 0.0
C_ C_ 0.414437 0.63051 0.671853 0.0
C_ C_ 0.4608 0.613273 0.669669 0.0
C_ C_ 0.466734 0.581574 0.685219 0.0
C_ C_ 0.481436 0.620719 0.641473 0.0
C_ C_ 0.408884 0.648598 0.645016 0.0
C_ C_ 0.497609 0.730298 0.592092 0.0
C_ C_ 0.472407 0.705623 0.611814 0.0
C_ C_ 0.471479 0.669032 0.605206 0.0
C_ C_ 0.49651 0.658066 0.579027 0.0
C_ C_ 0.51981 0.683656 0.559394 0.0
C_ C_ 0.634705 0.53623 0.667278 0.0
C_ C_ 0.665401 0.544726 0.639664 0.0
C_ C_ 0.384406 0.533773 0.636493 0.0
C_ C_ 0.413353 0.541779 0.610068 0.0
C_ C_ 0.387771 0.557109 0.585956 0.0
C_ C_ 0.669945 0.568029 0.588977 0.0
C_ C_ 0.642605 0.56379 0.616129 0.0
C_ C_ 0.413024 0.579403 0.564863 0.0
C_ C_ 0.666112 0.596676 0.56969 0.0
C_ C_ 0.430381 0.657225 0.989051 0.0
C_ C_ 0.416542 0.62753 0.507008 0.0
C_ C_ 0.392127 0.632198 0.534798 0.0
C_ C_ 0.380366 0.666644 0.543627 0.0
C_ C_ 0.394123 0.695648 0.524758 0.0
C_ C_ 0.56132 0.710002 0.977052 0.0
C_ C_ 0.57068 0.679229 0.957483 0.0
C_ C_ 0.618147 0.661178 0.960019 0.0
C_ C_ 0.627082 0.632648 0.940542 0.0
C_ C_ 0.585563 0.61949 0.921853 0.0
C_ C_ 0.5392 0.636727 0.919669 0.0
C_ C_ 0.533266 0.668426 0.935219 0.0
C_ C_ 0.518564 0.629281 0.891473 0.0
C_ C_ 0.591116 0.601402 0.895016 0.0
C_ C_ 0.502391 0.519702 0.842092 0.0
C_ C_ 0.527593 0.544377 0.861814 0.0
C_ C_ 0.528521 0.580968 0.855206 0.0
C_ C_ 0.50349 0.591934 0.829027 0.0
C_ C_ 0.48019 0.566344 0.809394 0.0
C_ C_ 0.365295 0.71377 0.917278 0.0
C_ C_ 0.334599 0.705274 0.889664 0.0
C_ C_ 0.615594 0.716227 0.886493 0.0
C_ C_ 0.586647 0.708221 0.860068 0.0
C_ C_ 0.612229 0.692891 0.835956 0.0
C_ C_ 0.330055 0.681971 0.838977 0.0
C_ C_ 0.357395 0.68621 0.866129 0.0
C_ C_ 0.586976 0.670597 0.814863 0.0
C_ C_ 0.333888 0.653324 0.81969 0.0
C_ C_ 0.569619 0.592775 0.739051 0.0
C_ C_ 0.583458 0.62247 0.757008 0.0
C_ C_ 0.607873 0.617802 0.784798 0.0
C_ C_ 0.619634 0.583356 0.793627 0.0
C_ C_ 0.605877 0.554352 0.774758 0.0
C_ C_ 0.56132 0.960002 0.772948 0.0
C_ C_ 0.57068 0.929229 0.792517 0.0
C_ C_ 0.618147 0.911178 0.789981 0.0
C_ C_ 0.627082 0.882648 0.809458 0.0
C_ C_ 0.585563 0.86949 0.828147 0.0
C_ C_ 0.5392 0.886727 0.830331 0.0
C_ C_ 0.533266 0.918426 0.814781 0.0
C_ C_ 0.518564 0.879281 0.858527 0.0
C_ C_ 0.591116 0.851402 0.854984 0.0
C_ C_ 0.502391 0.769702 0.907908 0.0
C_ C_ 0.527593 0.794377 0.888186 0.0
C_ C_ 0.528521 0.830968 0.894794 0.0
C_ C_ 0.50349 0.841934 0.920973 0.0
C_ C_ 0.48019 0.816344 0.940606 0.0
C_ C_ 0.365295 0.96377 0.832722 0.0
C_ C_ 0.334599 0.955274 0.860336 0.0
C_ C_ 0.615594 0.966227 0.863507 0.0
C_ C_ 0.586647 0.958221 0.889932 0.0
C_ C_ 0.612229 0.942891 0.914044 0.0
C_ C_ 0.330055 0.931971 0.911023 0.0
C_ C_ 0.357395 0.93621 0.883871 0.0
C_ C_ 0.586976 0.920597 0.935137 0.0
C_ C_ 0.333888 0.903324 0.93031 0.0
C_ C_ 0.569619 0.842775 0.510949 0.0
C_ C_ 0.583458 0.87247 0.992992 0.0
C_ C_ 0.607873 0.867802 0.965202 0.0
C_ C_ 0.619634 0.833356 0.956373 0.0
C_ C_ 0.605877 0.804352 0.975242 0.0
C_ C_ 0.43868 0.789998 0.522948 0.0
C_ C_ 0.42932 0.820771 0.542517 0.0
C_ C_ 0.381853 0.838822 0.539981 0.0
C_ C_ 0.372918 0.867352 0.559458 0.0
C_ C_ 0.414437 0.88051 0.578147 0.0
C_ C_ 0.4608 0.863273 0.580331 0.0
C_ C_ 0.466734 0.831574 0.564781 0.0
C_ C_ 0.481436 0.870719 0.608527 0.0
C_ C_ 0.408884 0.898598 0.604984 0.0
C_ C_ 0.497609 0.980298 0.657908 0.0
C_ C_ 0.472407 0.955623 0.638186 0.0
C_ C_ 0.471479 0.919032 0.644794 0.0
C_ C_ 0.49651 0.908066 0.670973 0.0
C_ C_ 0.51981 0.933656 0.690606 0.0
C_ C_ 0.634705 0.78623 0.582722 0.0
C_ C_ 0.665401 0.794726 0.610336 0.0
C_ C_ 0.384406 0.783773 0.613507 0.0
C_ C_ 0.413353 0.791779 0.639932 0.0
C_ C_ 0.387771 0.807109 0.664044 0.0
C_ C_ 0.669945 0.818029 0.661023 0.0
C_ C_ 0.642605 0.81379 0.633871 0.0
C_ C_ 0.413024 0.829403 0.685137 0.0
C_ C_ 0.666112 0.846676 0.68031 0.0
C_ C_ 0.430381 0.907225 0.760949 0.0
C_ C_ 0.416542 0.87753 0.742992 0.0
C_ C_ 0.392127 0.882198 0.715202 0.0
C_ C_ 0.380366 0.916644 0.706373 0.0
C_ C_ 0.394123 0.945648 0.725242 0.0
N_ N_ 0.519601 0.719087 0.566102 0.0
N_ N_ 0.450277 0.642872 0.626543 0.0
N_ N_ 0.378193 0.601806 0.55365 0.0
N_ N_ 0.420902 0.690701 0.4986 0.0
N_ N_ 0.480399 0.530913 0.816102 0.0
N_ N_ 0.549723 0.607128 0.876543 0.0
N_ N_ 0.621807 0.648194 0.80365 0.0
N_ N_ 0.579098 0.559299 0.7486 0.0
N_ N_ 0.480399 0.780913 0.933898 0.0
N_ N_ 0.549723 0.857128 0.873457 0.0
N_ N_ 0.621807 0.898194 0.94635 0.0
N_ N_ 0.579098 0.809299 0.00139979 0.0
N_ N_ 0.519601 0.969087 0.683898 0.0
N_ N_ 0.450277 0.892872 0.623457 0.0
N_ N_ 0.378193 0.851806 0.69635 0.0
N_ N_ 0.420902 0.940701 0.7514 0.0
O_ O_ 0.465517 0.514997 0.717173 0.0
O_ O_ 0.410651 0.534476 0.750578 0.0
O_ O_ 0.362123 0.655721 0.634274 0.0
O_ O_ 0.532653 0.620132 0.63586 0.0
O_ O_ 0.59232 0.551058 0.672831 0.0
O_ O_ 0.645557 0.510599 0.684197 0.0
O_ O_ 0.620206 0.605994 0.559287 0.0
O_ O_ 0.454156 0.569983 0.549288 0.0
O_ O_ 0.534483 0.735003 0.967173 0.0
O_ O_ 0.589349 0.715524 0.500578 0.0
O_ O_ 0.637877 0.594279 0.884274 0.0
O_ O_ 0.467347 0.629868 0.88586 0.0
O_ O_ 0.40768 0.698942 0.922831 0.0
O_ O_ 0.354443 0.739401 0.934197 0.0
O_ O_ 0.379794 0.644007 0.809287 0.0
O_ O_ 0.545844 0.680017 0.799288 0.0
O_ O_ 0.534483 0.985003 0.782827 0.0
O_ O_ 0.589349 0.965524 0.749422 0.0
O_ O_ 0.637877 0.844279 0.865726 0.0
O_ O_ 0.467347 0.879868 0.86414 0.0
O_ O_ 0.40768 0.948942 0.827169 0.0
O_ O_ 0.354443 0.989401 0.815803 0.0
O_ O_ 0.379794 0.894007 0.940713 0.0
O_ O_ 0.545844 0.930017 0.950712 0.0
O_ O_ 0.465517 0.764997 0.532827 0.0
O_ O_ 0.410651 0.784476 0.999422 0.0
O_ O_ 0.362123 0.905721 0.615726 0.0
O_ O_ 0.532653 0.870132 0.61414 0.0
O_ O_ 0.59232 0.801058 0.577169 0.0
O_ O_ 0.645557 0.760599 0.565803 0.0
O_ O_ 0.620206 0.855994 0.690713 0.0
O_ O_ 0.454156 0.819983 0.700712 0.0
Cd Cd 0.896835 0.0117191 0.21467 0.0
Cd Cd 0.769832 0.238281 0.46467 0.0
Cd Cd 0.769832 0.488281 0.28533 0.0
Cd Cd 0.896835 0.261719 0.0353296 0.0
H_ H_ 0.684627 0.0797452 0.225897 0.0
H_ H_ 0.00143726 0.129013 0.190298 0.0
H_ H_ 0.832225 0.0651784 0.179747 0.0
H_ H_ 0.833728 0.258413 0.0976618 0.0
H_ H_ 0.78881 0.214791 0.132561 0.0
H_ H_ 0.832514 0.129969 0.0743557 0.0
H_ H_ 0.872183 0.175225 0.0391002 0.0
H_ H_ 0.736312 0.0202596 0.154784 0.0
H_ H_ 0.788447 0.0367846 0.108694 0.0
H_ H_ 0.937697 0.0748764 0.118937 0.0
H_ H_ 0.778699 0.153364 0.46672 0.0
H_ H_ 0.756465 0.100974 0.998905 0.0
H_ H_ 0.693888 0.170902 0.0648075 0.0
H_ H_ 0.714938 0.221767 0.0303887 0.0
H_ H_ 0.98204 0.170255 0.475897 0.0
H_ H_ 0.665229 0.120987 0.440298 0.0
H_ H_ 0.834442 0.184822 0.429747 0.0
H_ H_ 0.832939 0.491587 0.347662 0.0
H_ H_ 0.877857 0.035209 0.382561 0.0
H_ H_ 0.834153 0.120031 0.324356 0.0
H_ H_ 0.794483 0.0747749 0.2891 0.0
H_ H_ 0.930355 0.22974 0.404784 0.0
H_ H_ 0.87822 0.213215 0.358694 0.0
H_ H_ 0.728969 0.175124 0.368937 0.0
H_ H_ 0.887968 0.0966362 0.21672 0.0
H_ H_ 0.910202 0.149026 0.248905 0.0
H_ H_ 0.972779 0.0790981 0.314808 0.0
H_ H_ 0.951728 0.0282328 0.280389 0.0
H_ H_ 0.98204 0.420255 0.274103 0.0
H_ H_ 0.665229 0.370987 0.309702 0.0
H_ H_ 0.834442 0.434822 0.320253 0.0
H_ H_ 0.832939 0.241587 0.402338 0.0
H_ H_ 0.877857 0.285209 0.367439 0.0
H_ H_ 0.834153 0.370031 0.425644 0.0
H_ H_ 0.794483 0.324775 0.4609 0.0
H_ H_ 0.930355 0.47974 0.345216 0.0
H_ H_ 0.87822 0.463215 0.391306 0.0
H_ H_ 0.728969 0.425124 0.381063 0.0
H_ H_ 0.887968 0.346636 0.0332805 0.0
H_ H_ 0.910202 0.399026 0.501095 0.0
H_ H_ 0.972779 0.329098 0.435192 0.0
H_ H_ 0.951728 0.278233 0.469611 0.0
H_ H_ 0.684627 0.329745 0.0241033 0.0
H_ H_ 0.00143727 0.379013 0.0597022 0.0
H_ H_ 0.832225 0.315178 0.0702528 0.0
H_ H_ 0.833728 0.00841344 0.152338 0.0
H_ H_ 0.78881 0.464791 0.117439 0.0
H_ H_ 0.832514 0.379969 0.175644 0.0
H_ H_ 0.872183 0.425225 0.2109 0.0
H_ H_ 0.736312 0.27026 0.0952161 0.0
H_ H_ 0.788447 0.286785 0.141306 0.0
H_ H_ 0.937697 0.324876 0.131063 0.0
H_ H_ 0.778699 0.403364 0.28328 0.0
H_ H_ 0.756465 0.350974 0.251095 0.0
H_ H_ 0.693888 0.420902 0.185192 0.0
H_ H_ 0.714938 0.471767 0.219611 0.0
C_ C_ 0.772014 0.0399984 0.227052 0.0
C_ C_ 0.762653 0.0707715 0.207483 0.0
C_ C_ 0.715187 0.0888219 0.210019 0.0
C_ C_ 0.706251 0.117352 0.190542 0.0
C_ C_ 0.747771 0.13051 0.171853 0.0
C_ C_ 0.794133 0.113273 0.169669 0.0
C_ C_ 0.800068 0.0815736 0.185219 0.0
C_ C_ 0.814769 0.120719 0.141473 0.0
C_ C_ 0.742217 0.148598 0.145016 0.0
C_ C_ 0.830943 0.230298 0.0920919 0.0
C_ C_ 0.80574 0.205623 0.111814 0.0
C_ C_ 0.804812 0.169032 0.105206 0.0
C_ C_ 0.829843 0.158066 0.0790275 0.0
C_ C_ 0.853144 0.183656 0.0593936 0.0
C_ C_ 0.968039 0.0362297 0.167278 0.0
C_ C_ 0.998734 0.0447258 0.139664 0.0
C_ C_ 0.717739 0.0337728 0.136493 0.0
C_ C_ 0.746686 0.0417792 0.110068 0.0
C_ C_ 0.721104 0.0571085 0.0859562 0.0
C_ C_ 0.00327862 0.0680289 0.0889766 0.0
C_ C_ 0.975938 0.0637899 0.116129 0.0
C_ C_ 0.746357 0.0794027 0.0648629 0.0
C_ C_ 0.999445 0.0966762 0.0696897 0.0
C_ C_ 0.763715 0.157225 0.489051 0.0
C_ C_ 0.749875 0.12753 0.00700845 0.0
C_ C_ 0.725461 0.132198 0.0347975 0.0
C_ C_ 0.713699 0.166644 0.0436273 0.0
C_ C_ 0.727456 0.195648 0.0247575 0.0
C_ C_ 0.894653 0.210002 0.477052 0.0
C_ C_ 0.904014 0.179229 0.457483 0.0
C_ C_ 0.95148 0.161178 0.460019 0.0
C_ C_ 0.960415 0.132648 0.440542 0.0
C_ C_ 0.918896 0.11949 0.421853 0.0
C_ C_ 0.872534 0.136727 0.419669 0.0
C_ C_ 0.866599 0.168426 0.435219 0.0
C_ C_ 0.851898 0.129281 0.391473 0.0
C_ C_ 0.924449 0.101402 0.395016 0.0
C_ C_ 0.835724 0.0197024 0.342092 0.0
C_ C_ 0.860926 0.044377 0.361814 0.0
C_ C_ 0.861855 0.0809681 0.355206 0.0
C_ C_ 0.836823 0.0919345 0.329027 0.0
C_ C_ 0.813523 0.0663441 0.309394 0.0
C_ C_ 0.698628 0.21377 0.417278 0.0
C_ C_ 0.667933 0.205274 0.389664 0.0
C_ C_ 0.948927 0.216227 0.386493 0.0
C_ C_ 0.91998 0.208221 0.360068 0.0
C_ C_ 0.945562 0.192891 0.335956 0.0
C_ C_ 0.663388 0.181971 0.338977 0.0
C_ C_ 0.690729 0.18621 0.366129 0.0
C_ C_ 0.92031 0.170597 0.314863 0.0
C_ C_ 0.667221 0.153324 0.31969 0.0
C_ C_ 0.902952 0.0927748 0.239051 0.0
C_ C_ 0.916792 0.12247 0.257008 0.0
C_ C_ 0.941206 0.117802 0.284798 0.0
C_ C_ 0.952968 0.0833558 0.293627 0.0
C_ C_ 0.93921 0.0543523 0.274758 0.0
C_ C_ 0.894653 0.460002 0.272948 0.0
C_ C_ 0.904014 0.429229 0.292517 0.0
C_ C_ 0.95148 0.411178 0.289981 0.0
C_ C_ 0.960415 0.382648 0.309458 0.0
C_ C_ 0.918896 0.36949 0.328147 0.0
C_ C_ 0.872534 0.386727 0.330331 0.0
C_ C_ 0.866599 0.418426 0.314781 0.0
C_ C_ 0.851898 0.379281 0.358527 0.0
C_ C_ 0.924449 0.351402 0.354984 0.0
C_ C_ 0.835724 0.269702 0.407908 0.0
C_ C_ 0.860926 0.294377 0.388186 0.0
C_ C_ 0.861855 0.330968 0.394794 0.0
C_ C_ 0.836823 0.341934 0.420973 0.0
C_ C_ 0.813523 0.316344 0.440606 0.0
C_ C_ 0.698628 0.46377 0.332722 0.0
C_ C_ 0.667933 0.455274 0.360336 0.0
C_ C_ 0.948927 0.466227 0.363507 0.0
C_ C_ 0.91998 0.458221 0.389932 0.0
C_ C_ 0.945562 0.442891 0.414044 0.0
C_ C_ 0.663388 0.431971 0.411023 0.0
C_ C_ 0.690729 0.43621 0.383871 0.0
C_ C_ 0.92031 0.420597 0.435137 0.0
C_ C_ 0.667221 0.403324 0.43031 0.0
C_ C_ 0.902952 0.342775 0.010949 0.0
C_ C_ 0.916792 0.37247 0.492992 0.0
C_ C_ 0.941206 0.367802 0.465202 0.0
C_ C_ 0.952968 0.333356 0.456373 0.0
C_ C_ 0.93921 0.304352 0.475242 0.0
C_ C_ 0.772014 0.289998 0.0229477 0.0
C_ C_ 0.762653 0.320771 0.0425173 0.0
C_ C_ 0.715187 0.338822 0.0399812 0.0
C_ C_ 0.706251 0.367352 0.0594584 0.0
C_ C_ 0.747771 0.38051 0.0781469 0.0
C_ C_ 0.794133 0.363273 0.0803307 0.0
C_ C_ 0.800068 0.331574 0.0647813 0.0
C_ C_ 0.814769 0.370719 0.108527 0.0
C_ C_ 0.742217 0.398598 0.104984 0.0
C_ C_ 0.830943 0.480298 0.157908 0.0
C_ C_ 0.80574 0.455623 0.138186 0.0
C_ C_ 0.804812 0.419032 0.144794 0.0
C_ C_ 0.829843 0.408066 0.170973 0.0
C_ C_ 0.853144 0.433656 0.190606 0.0
C_ C_ 0.968039 0.28623 0.0827219 0.0
C_ C_ 0.998734 0.294726 0.110336 0.0
C_ C_ 0.717739 0.283773 0.113507 0.0
C_ C_ 0.746686 0.291779 0.139932 0.0
C_ C_ 0.721104 0.307109 0.164044 0.0
C_ C_ 0.00327863 0.318029 0.161023 0.0
C_ C_ 0.975938 0.31379 0.133871 0.0
C_ C_ 0.746357 0.329403 0.185137 0.0
C_ C_ 0.999445 0.346676 0.18031 0.0
C_ C_ 0.763715 0.407225 0.260949 0.0
C_ C_ 0.749875 0.37753 0.242992 0.0
C_ C_ 0.725461 0.382198 0.215202 0.0
C_ C_ 0.713699 0.416644 0.206373 0.0
C_ C_ 0.727456 0.445648 0.225242 0.0
N_ N_ 0.852935 0.219087 0.066102 0.0
N_ N_ 0.783611 0.142872 0.126543 0.0
N_ N_ 0.711527 0.101806 0.0536496 0.0
N_ N_ 0.754235 0.190701 0.9986 0.0
N_ N_ 0.813732 0.030913 0.316102 0.0
N_ N_ 0.883056 0.107128 0.376543 0.0
N_ N_ 0.95514 0.148194 0.30365 0.0
N_ N_ 0.912431 0.0592986 0.2486 0.0
N_ N_ 0.813732 0.280913 0.433898 0.0
N_ N_ 0.883056 0.357128 0.373457 0.0
N_ N_ 0.95514 0.398194 0.44635 0.0
N_ N_ 0.912431 0.309299 0.5014 0.0
N_ N_ 0.852935 0.469087 0.183898 0.0
N_ N_ 0.783611 0.392872 0.123457 0.0
N_ N_ 0.711527 0.351806 0.19635 0.0
N_ N_ 0.754235 0.440701 0.2514 0.0
O_ O_ 0.79885 0.0149975 0.217173 0.0
O_ O_ 0.743984 0.0344756 0.250578 0.0
O_ O_ 0.695457 0.155721 0.134274 0.0
O_ O_ 0.865986 0.120132 0.13586 0.0
O_ O_ 0.925653 0.0510577 0.172831 0.0
O_ O_ 0.978891 0.0105991 0.184197 0.0
O_ O_ 0.95354 0.105994 0.059287 0.0
O_ O_ 0.78749 0.0699826 0.0492879 0.0
O_ O_ 0.867816 0.235003 0.467173 0.0
O_ O_ 0.922682 0.215524 0.000578323 0.0
O_ O_ 0.97121 0.094279 0.384274 0.0
O_ O_ 0.80068 0.129868 0.38586 0.0
O_ O_ 0.741013 0.198942 0.422831 0.0
O_ O_ 0.687776 0.239401 0.434197 0.0
O_ O_ 0.713127 0.144006 0.309287 0.0
O_ O_ 0.879177 0.180017 0.299288 0.0
O_ O_ 0.867816 0.485003 0.282827 0.0
O_ O_ 0.922682 0.465524 0.249422 0.0
O_ O_ 0.97121 0.344279 0.365726 0.0
O_ O_ 0.80068 0.379868 0.36414 0.0
O_ O_ 0.741013 0.448942 0.327169 0.0
O_ O_ 0.687776 0.489401 0.315803 0.0
O_ O_ 0.713127 0.394006 0.440713 0.0
O_ O_ 0.879177 0.430017 0.450712 0.0
O_ O_ 0.79885 0.264997 0.032827 0.0
O_ O_ 0.743984 0.284476 0.499422 0.0
O_ O_ 0.695457 0.405721 0.115726 0.0
O_ O_ 0.865986 0.370132 0.11414 0.0
O_ O_ 0.925653 0.301058 0.0771694 0.0
O_ O_ 0.978891 0.260599 0.0658027 0.0
O_ O_ 0.95354 0.355994 0.190713 0.0
O_ O_ 0.78749 0.319983 0.200712 0.0
Cd Cd 0.896835 0.0117191 0.71467 0.0
Cd Cd 0.769832 0.238281 0.96467 0.0
Cd Cd 0.769832 0.488281 0.78533 0.0
Cd Cd 0.896835 0.261719 0.53533 0.0
H_ H_ 0.684627 0.0797452 0.725897 0.0
H_ H_ 0.00143726 0.129013 0.690298 0.0
H_ H_ 0.832225 0.0651784 0.679747 0.0
H_ H_ 0.833728 0.258413 0.597662 0.0
H_ H_ 0.78881 0.214791 0.632561 0.0
H_ H_ 0.832514 0.129969 0.574356 0.0
H_ H_ 0.872183 0.175225 0.5391 0.0
H_ H_ 0.736312 0.0202596 0.654784 0.0
H_ H_ 0.788447 0.0367846 0.608694 0.0
H_ H_ 0.937697 0.0748764 0.618937 0.0
H_ H_ 0.778699 0.153364 0.96672 0.0
H_ H_ 0.756465 0.100974 0.498905 0.0
H_ H_ 0.693888 0.170902 0.564808 0.0
H_ H_ 0.714938 0.221767 0.530389 0.0
H_ H_ 0.98204 0.170255 0.975897 0.0
H_ H_ 0.665229 0.120987 0.940298 0.0
H_ H_ 0.834442 0.184822 0.929747 0.0
H_ H_ 0.832939 0.491587 0.847662 0.0
H_ H_ 0.877857 0.035209 0.882561 0.0
H_ H_ 0.834153 0.120031 0.824356 0.0
H_ H_ 0.794483 0.0747749 0.7891 0.0
H_ H_ 0.930355 0.22974 0.904784 0.0
H_ H_ 0.87822 0.213215 0.858694 0.0
H_ H_ 0.728969 0.175124 0.868937 0.0
H_ H_ 0.887968 0.0966362 0.71672 0.0
H_ H_ 0.910202 0.149026 0.748905 0.0
H_ H_ 0.972779 0.0790981 0.814808 0.0
H_ H_ 0.951728 0.0282328 0.780389 0.0
H_ H_ 0.98204 0.420255 0.774103 0.0
H_ H_ 0.665229 0.370987 0.809702 0.0
H_ H_ 0.834442 0.434822 0.820253 0.0
H_ H_ 0.832939 0.241587 0.902338 0.0
H_ H_ 0.877857 0.285209 0.867439 0.0
H_ H_ 0.834153 0.370031 0.925644 0.0
H_ H_ 0.794483 0.324775 0.9609 0.0
H_ H_ 0.930355 0.47974 0.845216 0.0
H_ H_ 0.87822 0.463215 0.891306 0.0
H_ H_ 0.728969 0.425124 0.881063 0.0
H_ H_ 0.887968 0.346636 0.53328 0.0
H_ H_ 0.910202 0.399026 0.00109454 0.0
H_ H_ 0.972779 0.329098 0.935192 0.0
H_ H_ 0.951728 0.278233 0.969611 0.0
H_ H_ 0.684627 0.329745 0.524103 0.0
H_ H_ 0.00143727 0.379013 0.559702 0.0
H_ H_ 0.832225 0.315178 0.570253 0.0
H_ H_ 0.833728 0.00841344 0.652338 0.0
H_ H_ 0.78881 0.464791 0.617439 0.0
H_ H_ 0.832514 0.379969 0.675644 0.0
H_ H_ 0.872183 0.425225 0.7109 0.0
H_ H_ 0.736312 0.27026 0.595216 0.0
H_ H_ 0.788447 0.286785 0.641306 0.0
H_ H_ 0.937697 0.324876 0.631063 0.0
H_ H_ 0.778699 0.403364 0.78328 0.0
H_ H_ 0.756465 0.350974 0.751095 0.0
H_ H_ 0.693888 0.420902 0.685192 0.0
H_ H_ 0.714938 0.471767 0.719611 0.0
C_ C_ 0.772014 0.0399984 0.727052 0.0
C_ C_ 0.762653 0.0707715 0.707483 0.0
C_ C_ 0.715187 0.0888219 0.710019 0.0
C_ C_ 0.706251 0.117352 0.690542 0.0
C_ C_ 0.747771 0.13051 0.671853 0.0
C_ C_ 0.794133 0.113273 0.669669 0.0
C_ C_ 0.800068 0.0815736 0.685219 0.0
C_ C_ 0.814769 0.120719 0.641473 0.0
C_ C_ 0.742217 0.148598 0.645016 0.0
C_ C_ 0.830943 0.230298 0.592092 0.0
C_ C_ 0.80574 0.205623 0.611814 0.0
C_ C_ 0.804812 0.169032 0.605206 0.0
C_ C_ 0.829843 0.158066 0.579027 0.0
C_ C_ 0.853144 0.183656 0.559394 0.0
C_ C_ 0.968039 0.0362297 0.667278 0.0
C_ C_ 0.998734 0.0447258 0.639664 0.0
C_ C_ 0.717739 0.0337728 0.636493 0.0
C_ C_ 0.746686 0.0417792 0.610068 0.0
C_ C_ 0.721104 0.0571085 0.585956 0.0
C_ C_ 0.00327862 0.0680289 0.588977 0.0
C_ C_ 0.975938 0.0637899 0.616129 0.0
C_ C_ 0.746357 0.0794027 0.564863 0.0
C_ C_ 0.999445 0.0966762 0.56969 0.0
C_ C_ 0.763715 0.157225 0.989051 0.0
C_ C_ 0.749875 0.12753 0.507008 0.0
C_ C_ 0.725461 0.132198 0.534798 0.0
C_ C_ 0.713699 0.166644 0.543627 0.0
C_ C_ 0.727456 0.195648 0.524758 0.0
C_ C_ 0.894653 0.210002 0.977052 0.0
C_ C_ 0.904014 0.179229 0.957483 0.0
C_ C_ 0.95148 0.161178 0.960019 0.0
C_ C_ 0.960415 0.132648 0.940542 0.0
C_ C_ 0.918896 0.11949 0.921853 0.0
C_ C_ 0.872534 0.136727 0.919669 0.0
C_ C_ 0.866599 0.168426 0.935219 0.0
C_ C_ 0.851898 0.129281 0.891473 0.0
C_ C_ 0.924449 0.101402 0.895016 0.0
C_ C_ 0.835724 0.0197024 0.842092 0.0
C_ C_ 0.860926 0.044377 0.861814 0.0
C_ C_ 0.861855 0.0809681 0.855206 0.0
C_ C_ 0.836823 0.0919345 0.829027 0.0
C_ C_ 0.813523 0.0663441 0.809394 0.0
C_ C_ 0.698628 0.21377 0.917278 0.0
C_ C_ 0.667933 0.205274 0.889664 0.0
C_ C_ 0.948927 0.216227 0.886493 0.0
C_ C_ 0.91998 0.208221 0.860068 0.0
C_ C_ 0.945562 0.192891 0.835956 0.0
C_ C_ 0.663388 0.181971 0.838977 0.0
C_ C_ 0.690729 0.18621 0.866129 0.0
C_ C_ 0.92031 0.170597 0.814863 0.0
C_ C_ 0.667221 0.153324 0.81969 0.0
C_ C_ 0.902952 0.0927748 0.739051 0.0
C_ C_ 0.916792 0.12247 0.757008 0.0
C_ C_ 0.941206 0.117802 0.784798 0.0
C_ C_ 0.952968 0.0833558 0.793627 0.0
C_ C_ 0.93921 0.0543523 0.774758 0.0
C_ C_ 0.894653 0.460002 0.772948 0.0
C_ C_ 0.904014 0.429229 0.792517 0.0
C_ C_ 0.95148 0.411178 0.789981 0.0
C_ C_ 0.960415 0.382648 0.809458 0.0
C_ C_ 0.918896 0.36949 0.828147 0.0
C_ C_ 0.872534 0.386727 0.830331 0.0
C_ C_ 0.866599 0.418426 0.814781 0.0
C_ C_ 0.851898 0.379281 0.858527 0.0
C_ C_ 0.924449 0.351402 0.854984 0.0
C_ C_ 0.835724 0.269702 0.907908 0.0
C_ C_ 0.860926 0.294377 0.888186 0.0
C_ C_ 0.861855 0.330968 0.894794 0.0
C_ C_ 0.836823 0.341934 0.920973 0.0
C_ C_ 0.813523 0.316344 0.940606 0.0
C_ C_ 0.698628 0.46377 0.832722 0.0
C_ C_ 0.667933 0.455274 0.860336 0.0
C_ C_ 0.948927 0.466227 0.863507 0.0
C_ C_ 0.91998 0.458221 0.889932 0.0
C_ C_ 0.945562 0.442891 0.914044 0.0
C_ C_ 0.663388 0.431971 0.911023 0.0
C_ C_ 0.690729 0.43621 0.883871 0.0
C_ C_ 0.92031 0.420597 0.935137 0.0
C_ C_ 0.667221 0.403324 0.93031 0.0
C_ C_ 0.902952 0.342775 0.510949 0.0
C_ C_ 0.916792 0.37247 0.992992 0.0
C_ C_ 0.941206 0.367802 0.965202 0.0
C_ C_ 0.952968 0.333356 0.956373 0.0
C_ C_ 0.93921 0.304352 0.975242 0.0
C_ C_ 0.772014 0.289998 0.522948 0.0
C_ C_ 0.762653 0.320771 0.542517 0.0
C_ C_ 0.715187 0.338822 0.539981 0.0
C_ C_ 0.706251 0.367352 0.559458 0.0
C_ C_ 0.747771 0.38051 0.578147 0.0
C_ C_ 0.794133 0.363273 0.580331 0.0
C_ C_ 0.800068 0.331574 0.564781 0.0
C_ C_ 0.814769 0.370719 0.608527 0.0
C_ C_ 0.742217 0.398598 0.604984 0.0
C_ C_ 0.830943 0.480298 0.657908 0.0
C_ C_ 0.80574 0.455623 0.638186 0.0
C_ C_ 0.804812 0.419032 0.644794 0.0
C_ C_ 0.829843 0.408066 0.670973 0.0
C_ C_ 0.853144 0.433656 0.690606 0.0
C_ C_ 0.968039 0.28623 0.582722 0.0
C_ C_ 0.998734 0.294726 0.610336 0.0
C_ C_ 0.717739 0.283773 0.613507 0.0
C_ C_ 0.746686 0.291779 0.639932 0.0
C_ C_ 0.721104 0.307109 0.664044 0.0
C_ C_ 0.00327863 0.318029 0.661023 0.0
C_ C_ 0.975938 0.31379 0.633871 0.0
C_ C_ 0.746357 0.329403 0.685137 0.0
C_ C_ 0.999445 0.346676 0.68031 0.0
C_ C_ 0.763715 0.407225 0.760949 0.0
C_ C_ 0.749875 0.37753 0.742992 0.0
C_ C_ 0.725461 0.382198 0.715202 0.0
C_ C_ 0.713699 0.416644 0.706373 0.0
C_ C_ 0.727456 0.445648 0.725242 0.0
N_ N_ 0.852935 0.219087 0.566102 0.0
N_ N_ 0.783611 0.142872 0.626543 0.0
N_ N_ 0.711527 0.101806 0.55365 0.0
N_ N_ 0.754235 0.190701 0.4986 0.0
N_ N_ 0.813732 0.030913 0.816102 0.0
N_ N_ 0.883056 0.107128 0.876543 0.0
N_ N_ 0.95514 0.148194 0.80365 0.0
N_ N_ 0.912431 0.0592986 0.7486 0.0
N_ N_ 0.813732 0.280913 0.933898 0.0
N_ N_ 0.883056 0.357128 0.873457 0.0
N_ N_ 0.95514 0.398194 0.94635 0.0
N_ N_ 0.912431 0.309299 0.00139979 0.0
N_ N_ 0.852935 0.469087 0.683898 0.0
N_ N_ 0.783611 0.392872 0.623457 0.0
N_ N_ 0.711527 0.351806 0.69635 0.0
N_ N_ 0.754235 0.440701 0.7514 0.0
O_ O_ 0.79885 0.0149975 0.717173 0.0
O_ O_ 0.743984 0.0344756 0.750578 0.0
O_ O_ 0.695457 0.155721 0.634274 0.0
O_ O_ 0.865986 0.120132 0.63586 0.0
O_ O_ 0.925653 0.0510577 0.672831 0.0
O_ O_ 0.978891 0.0105991 0.684197 0.0
O_ O_ 0.95354 0.105994 0.559287 0.0
O_ O_ 0.78749 0.0699826 0.549288 0.0
O_ O_ 0.867816 0.235003 0.967173 0.0
O_ O_ 0.922682 0.215524 0.500578 0.0
O_ O_ 0.97121 0.094279 0.884274 0.0
O_ O_ 0.80068 0.129868 0.88586 0.0
O_ O_ 0.741013 0.198942 0.922831 0.0
O_ O_ 0.687776 0.239401 0.934197 0.0
O_ O_ 0.713127 0.144006 0.809287 0.0
O_ O_ 0.879177 0.180017 0.799288 0.0
O_ O_ 0.867816 0.485003 0.782827 0.0
O_ O_ 0.922682 0.465524 0.749422 0.0
O_ O_ 0.97121 0.344279 0.865726 0.0
O_ O_ 0.80068 0.379868 0.86414 0.0
O_ O_ 0.741013 0.448942 0.827169 0.0
O_ O_ 0.687776 0.489401 0.815803 0.0
O_ O_ 0.713127 0.394006 0.940713 0.0
O_ O_ 0.879177 0.430017 0.950712 0.0
O_ O_ 0.79885 0.264997 0.532827 0.0
O_ O_ 0.743984 0.284476 0.999422 0.0
O_ O_ 0.695457 0.405721 0.615726 0.0
O_ O_ 0.865986 0.370132 0.61414 0.0
O_ O_ 0.925653 0.301058 0.577169 0.0
O_ O_ 0.978891 0.260599 0.565803 0.0
O_ O_ 0.95354 0.355994 0.690713 0.0
O_ O_ 0.78749 0.319983 0.700712 0.0
Cd Cd 0.896835 0.511719 0.21467 0.0
Cd Cd 0.769832 0.738281 0.46467 0.0
Cd Cd 0.769832 0.988281 0.28533 0.0
Cd Cd 0.896835 0.761719 0.0353296 0.0
H_ H_ 0.684627 0.579745 0.225897 0.0
H_ H_ 0.00143727 0.629013 0.190298 0.0
H_ H_ 0.832225 0.565178 0.179747 0.0
H_ H_ 0.833728 0.758413 0.0976618 0.0
H_ H_ 0.78881 0.714791 0.132561 0.0
H_ H_ 0.832514 0.629969 0.0743557 0.0
H_ H_ 0.872183 0.675225 0.0391002 0.0
H_ H_ 0.736312 0.52026 0.154784 0.0
H_ H_ 0.788447 0.536785 0.108694 0.0
H_ H_ 0.937697 0.574876 0.118937 0.0
H_ H_ 0.778699 0.653364 0.46672 0.0
H_ H_ 0.756465 0.600974 0.998905 0.0
H_ H_ 0.693888 0.670902 0.0648075 0.0
H_ H_ 0.714938 0.721767 0.0303887 0.0
H_ H_ 0.98204 0.670255 0.475897 0.0
H_ H_ 0.665229 0.620987 0.440298 0.0
H_ H_ 0.834442 0.684822 0.429747 0.0
H_ H_ 0.832939 0.991587 0.347662 0.0
H_ H_ 0.877857 0.535209 0.382561 0.0
H_ H_ 0.834153 0.620031 0.324356 0.0
H_ H_ 0.794483 0.574775 0.2891 0.0
H_ H_ 0.930355 0.72974 0.404784 0.0
H_ H_ 0.87822 0.713215 0.358694 0.0
H_ H_ 0.728969 0.675124 0.368937 0.0
H_ H_ 0.887968 0.596636 0.21672 0.0
H_ H_ 0.910202 0.649026 0.248905 0.0
H_ H_ 0.972779 0.579098 0.314808 0.0
H_ H_ 0.951728 0.528233 0.280389 0.0
H_ H_ 0.98204 0.920255 0.274103 0.0
H_ H_ 0.665229 0.870987 0.309702 0.0
H_ H_ 0.834442 0.934822 0.320253 0.0
H_ H_ 0.832939 0.741587 0.402338 0.0
H_ H_ 0.877857 0.785209 0.367439 0.0
H_ H_ 0.834153 0.870031 0.425644 0.0
H_ H_ 0.794483 0.824775 0.4609 0.0
H_ H_ 0.930355 0.97974 0.345216 0.0
H_ H_ 0.87822 0.963215 0.391306 0.0
H_ H_ 0.728969 0.925124 0.381063 0.0
H_ H_ 0.887968 0.846636 0.0332805 0.0
H_ H_ 0.910202 0.899026 0.501095 0.0
H_ H_ 0.972779 0.829098 0.435192 0.0
H_ H_ 0.951728 0.778233 0.469611 0.0
H_ H_ 0.684627 0.829745 0.0241033 0.0
H_ H_ 0.00143726 0.879013 0.0597022 0.0
H_ H_ 0.832225 0.815178 0.0702528 0.0
H_ H_ 0.833728 0.508413 0.152338 0.0
H_ H_ 0.78881 0.964791 0.117439 0.0
H_ H_ 0.832514 0.879969 0.175644 0.0
H_ H_ 0.872183 0.925225 0.2109 0.0
H_ H_ 0.736312 0.77026 0.0952161 0.0
H_ H_ 0.788447 0.786785 0.141306 0.0
H_ H_ 0.937697 0.824876 0.131063 0.0
H_ H_ 0.778699 0.903364 0.28328 0.0
H_ H_ 0.756465 0.850974 0.251095 0.0
H_ H_ 0.693888 0.920902 0.185192 0.0
H_ H_ 0.714938 0.971767 0.219611 0.0
C_ C_ 0.772014 0.539998 0.227052 0.0
C_ C_ 0.762653 0.570771 0.207483 0.0
C_ C_ 0.715187 0.588822 0.210019 0.0
C_ C_ 0.706251 0.617352 0.190542 0.0
C_ C_ 0.747771 0.63051 0.171853 0.0
C_ C_ 0.794133 0.613273 0.169669 0.0
C_ C_ 0.800068 0.581574 0.185219 0.0
C_ C_ 0.814769 0.620719 0.141473 0.0
C_ C_ 0.742217 0.648598 0.145016 0.0
C_ C_ 0.830943 0.730298 0.0920919 0.0
C_ C_ 0.80574 0.705623 0.111814 0.0
C_ C_ 0.804812 0.669032 0.105206 0.0
C_ C_ 0.829843 0.658066 0.0790275 0.0
C_ C_ 0.853144 0.683656 0.0593936 0.0
C_ C_ 0.968039 0.53623 0.167278 0.0
C_ C_ 0.998734 0.544726 0.139664 0.0
C_ C_ 0.717739 0.533773 0.136493 0.0
C_ C_ 0.746686 0.541779 0.110068 0.0
C_ C_ 0.721104 0.557109 0.0859562 0.0
C_ C_ 0.00327863 0.568029 0.0889766 0.0
C_ C_ 0.975938 0.56379 0.116129 0.0
C_ C_ 0.746357 0.579403 0.0648629 0.0
C_ C_ 0.999445 0.596676 0.0696897 0.0
C_ C_ 0.763715 0.657225 0.489051 0.0
C_ C_ 0.749875 0.62753 0.00700845 0.0
C_ C_ 0.725461 0.632198 0.0347975 0.0
C_ C_ 0.713699 0.666644 0.0436273 0.0
C_ C_ 0.727456 0.695648 0.0247575 0.0
C_ C_ 0.894653 0.710002 0.477052 0.0
C_ C_ 0.904014 0.679229 0.457483 0.0
C_ C_ 0.95148 0.661178 0.460019 0.0
C_ C_ 0.960415 0.632648 0.440542 0.0
C_ C_ 0.918896 0.61949 0.421853 0.0
C_ C_ 0.872534 0.636727 0.419669 0.0
C_ C_ 0.866599 0.668426 0.435219 0.0
C_ C_ 0.851898 0.629281 0.391473 0.0
C_ C_ 0.924449 0.601402 0.395016 0.0
C_ C_ 0.835724 0.519702 0.342092 0.0
C_ C_ 0.860926 0.544377 0.361814 0.0
C_ C_ 0.861855 0.580968 0.355206 0.0
C_ C_ 0.836823 0.591934 0.329027 0.0
C_ C_ 0.813523 0.566344 0.309394 0.0
C_ C_ 0.698628 0.71377 0.417278 0.0
C_ C_ 0.667933 0.705274 0.389664 0.0
C_ C_ 0.948927 0.716227 0.386493 0.0
C_ C_ 0.91998 0.708221 0.360068 0.0
C_ C_ 0.945562 0.692891 0.335956 0.0
C_ C_ 0.663388 0.681971 0.338977 0.0
C_ C_ 0.690729 0.68621 0.366129 0.0
C_ C_ 0.92031 0.670597 0.314863 0.0
C_ C_ 0.667221 0.653324 0.31969 0.0
C_ C_ 0.902952 0.592775 0.239051 0.0
C_ C_ 0.916792 0.62247 0.257008 0.0
C_ C_ 0.941206 0.617802 0.284798 0.0
C_ C_ 0.952968 0.583356 0.293627 0.0
C_ C_ 0.93921 0.554352 0.274758 0.0
C_ C_ 0.894653 0.960002 0.272948 0.0
C_ C_ 0.904014 0.929229 0.292517 0.0
C_ C_ 0.95148 0.911178 0.289981 0.0
C_ C_ 0.960415 0.882648 0.309458 0.0
C_ C_ 0.918896 0.86949 0.328147 0.0
C_ C_ 0.872534 0.886727 0.330331 0.0
C_ C_ 0.866599 0.918426 0.314781 0.0
C_ C_ 0.851898 0.879281 0.358527 0.0
C_ C_ 0.924449 0.851402 0.354984 0.0
C_ C_ 0.835724 0.769702 0.407908 0.0
C_ C_ 0.860926 0.794377 0.388186 0.0
C_ C_ 0.861855 0.830968 0.394794 0.0
C_ C_ 0.836823 0.841934 0.420973 0.0
C_ C_ 0.813523 0.816344 0.440606 0.0
C_ C_ 0.698628 0.96377 0.332722 0.0
C_ C_ 0.667933 0.955274 0.360336 0.0
C_ C_ 0.948927 0.966227 0.363507 0.0
C_ C_ 0.91998 0.958221 0.389932 0.0
C_ C_ 0.945562 0.942891 0.414044 0.0
C_ C_ 0.663388 0.931971 0.411023 0.0
C_ C_ 0.690729 0.93621 0.383871 0.0
C_ C_ 0.92031 0.920597 0.435137 0.0
C_ C_ 0.667221 0.903324 0.43031 0.0
C_ C_ 0.902952 0.842775 0.010949 0.0
C_ C_ 0.916792 0.87247 0.492992 0.0
C_ C_ 0.941206 0.867802 0.465202 0.0
C_ C_ 0.952968 0.833356 0.456373 0.0
C_ C_ 0.93921 0.804352 0.475242 0.0
C_ C_ 0.772014 0.789998 0.0229477 0.0
C_ C_ 0.762653 0.820771 0.0425173 0.0
C_ C_ 0.715187 0.838822 0.0399812 0.0
C_ C_ 0.706251 0.867352 0.0594584 0.0
C_ C_ 0.747771 0.88051 0.0781469 0.0
C_ C_ 0.794133 0.863273 0.0803307 0.0
C_ C_ 0.800068 0.831574 0.0647812 0.0
C_ C_ 0.814769 0.870719 0.108527 0.0
C_ C_ 0.742217 0.898598 0.104984 0.0
C_ C_ 0.830943 0.980298 0.157908 0.0
C_ C_ 0.80574 0.955623 0.138186 0.0
C_ C_ 0.804812 0.919032 0.144794 0.0
C_ C_ 0.829843 0.908066 0.170973 0.0
C_ C_ 0.853144 0.933656 0.190606 0.0
C_ C_ 0.968039 0.78623 0.0827219 0.0
C_ C_ 0.998734 0.794726 0.110336 0.0
C_ C_ 0.717739 0.783773 0.113507 0.0
C_ C_ 0.746686 0.791779 0.139932 0.0
C_ C_ 0.721104 0.807109 0.164044 0.0
C_ C_ 0.00327862 0.818029 0.161023 0.0
C_ C_ 0.975938 0.81379 0.133871 0.0
C_ C_ 0.746357 0.829403 0.185137 0.0
C_ C_ 0.999445 0.846676 0.18031 0.0
C_ C_ 0.763715 0.907225 0.260949 0.0
C_ C_ 0.749875 0.87753 0.242992 0.0
C_ C_ 0.725461 0.882198 0.215202 0.0
C_ C_ 0.713699 0.916644 0.206373 0.0
C_ C_ 0.727456 0.945648 0.225242 0.0
N_ N_ 0.852935 0.719087 0.066102 0.0
N_ N_ 0.783611 0.642872 0.126543 0.0
N_ N_ 0.711527 0.601806 0.0536496 0.0
N_ N_ 0.754235 0.690701 0.9986 0.0
N_ N_ 0.813732 0.530913 0.316102 0.0
N_ N_ 0.883056 0.607128 0.376543 0.0
N_ N_ 0.95514 0.648194 0.30365 0.0
N_ N_ 0.912431 0.559299 0.2486 0.0
N_ N_ 0.813732 0.780913 0.433898 0.0
N_ N_ 0.883056 0.857128 0.373457 0.0
N_ N_ 0.95514 0.898194 0.44635 0.0
N_ N_ 0.912431 0.809299 0.5014 0.0
N_ N_ 0.852935 0.969087 0.183898 0.0
N_ N_ 0.783611 0.892872 0.123457 0.0
N_ N_ 0.711527 0.851806 0.19635 0.0
N_ N_ 0.754235 0.940701 0.2514 0.0
O_ O_ 0.79885 0.514997 0.217173 0.0
O_ O_ 0.743984 0.534476 0.250578 0.0
O_ O_ 0.695457 0.655721 0.134274 0.0
O_ O_ 0.865986 0.620132 0.13586 0.0
O_ O_ 0.925653 0.551058 0.172831 0.0
O_ O_ 0.978891 0.510599 0.184197 0.0
O_ O_ 0.95354 0.605994 0.059287 0.0
O_ O_ 0.78749 0.569983 0.0492879 0.0
O_ O_ 0.867816 0.735003 0.467173 0.0
O_ O_ 0.922682 0.715524 0.000578323 0.0
O_ O_ 0.97121 0.594279 0.384274 0.0
O_ O_ 0.80068 0.629868 0.38586 0.0
O_ O_ 0.741013 0.698942 0.422831 0.0
O_ O_ 0.687776 0.739401 0.434197 0.0
O_ O_ 0.713127 0.644007 0.309287 0.0
O_ O_ 0.879177 0.680017 0.299288 0.0
O_ O_ 0.867816 0.985003 0.282827 0.0
O_ O_ 0.922682 0.965524 0.249422 0.0
O_ O_ 0.97121 0.844279 0.365726 0.0
O_ O_ 0.80068 0.879868 0.36414 0.0
O_ O_ 0.741013 0.948942 0.327169 0.0
O_ O_ 0.687776 0.989401 0.315803 0.0
O_ O_ 0.713127 0.894007 0.440713 0.0
O_ O_ 0.879177 0.930017 0.450712 0.0
O_ O_ 0.79885 0.764997 0.032827 0.0
O_ O_ 0.743984 0.784476 0.499422 0.0
O_ O_ 0.695457 0.905721 0.115726 0.0
O_ O_ 0.865986 0.870132 0.11414 0.0
O_ O_ 0.925653 0.801058 0.0771694 0.0
O_ O_ 0.978891 0.760599 0.0658027 0.0
O_ O_ 0.95354 0.855994 0.190713 0.0
O_ O_ 0.78749 0.819983 0.200712 0.0
Cd Cd 0.896835 0.511719 0.71467 0.0
Cd Cd 0.769832 0.738281 0.96467 0.0
Cd Cd 0.769832 0.988281 0.78533 0.0
Cd Cd 0.896835 0.761719 0.53533 0.0
H_ H_ 0.684627 0.579745 0.725897 0.0
H_ H_ 0.00143727 0.629013 0.690298 0.0
H_ H_ 0.832225 0.565178 0.679747 0.0
H_ H_ 0.833728 0.758413 0.597662 0.0
H_ H_ 0.78881 0.714791 0.632561 0.0
H_ H_ 0.832514 0.629969 0.574356 0.0
H_ H_ 0.872183 0.675225 0.5391 0.0
H_ H_ 0.736312 0.52026 0.654784 0.0
H_ H_ 0.788447 0.536785 0.608694 0.0
H_ H_ 0.937697 0.574876 0.618937 0.0
H_ H_ 0.778699 0.653364 0.96672 0.0
H_ H_ 0.756465 0.600974 0.498905 0.0
H_ H_ 0.693888 0.670902 0.564808 0.0
H_ H_ 0.714938 0.721767 0.530389 0.0
H_ H_ 0.98204 0.670255 0.975897 0.0
H_ H_ 0.665229 0.620987 0.940298 0.0
H_ H_ 0.834442 0.684822 0.929747 0.0
H_ H_ 0.832939 0.991587 0.847662 0.0
H_ H_ 0.877857 0.535209 0.882561 0.0
H_ H_ 0.834153 0.620031 0.824356 0.0
H_ H_ 0.794483 0.574775 0.7891 0.0
H_ H_ 0.930355 0.72974 0.904784 0.0
H_ H_ 0.87822 0.713215 0.858694 0.0
H_ H_ 0.728969 0.675124 0.868937 0.0
H_ H_ 0.887968 0.596636 0.71672 0.0
H_ H_ 0.910202 0.649026 0.748905 0.0
H_ H_ 0.972779 0.579098 0.814808 0.0
H_ H_ 0.951728 0.528233 0.780389 0.0
H_ H_ 0.98204 0.920255 0.774103 0.0
H_ H_ 0.665229 0.870987 0.809702 0.0
H_ H_ 0.834442 0.934822 0.820253 0.0
H_ H_ 0.832939 0.741587 0.902338 0.0
H_ H_ 0.877857 0.785209 0.867439 0.0
H_ H_ 0.834153 0.870031 0.925644 0.0
H_ H_ 0.794483 0.824775 0.9609 0.0
H_ H_ 0.930355 0.97974 0.845216 0.0
H_ H_ 0.87822 0.963215 0.891306 0.0
H_ H_ 0.728969 0.925124 0.881063 0.0
H_ H_ 0.887968 0.846636 0.53328 0.0
H_ H_ 0.910202 0.899026 0.00109454 0.0
H_ H_ 0.972779 0.829098 0.935192 0.0
H_ H_ 0.951728 0.778233 0.969611 0.0
H_ H_ 0.684627 0.829745 0.524103 0.0
H_ H_ 0.00143726 0.879013 0.559702 0.0
H_ H_ 0.832225 0.815178 0.570253 0.0
H_ H_ 0.833728 0.508413 0.652338 0.0
H_ H_ 0.78881 0.964791 0.617439 0.0
H_ H_ 0.832514 0.879969 0.675644 0.0
H_ H_ 0.872183 0.925225 0.7109 0.0
H_ H_ 0.736312 0.77026 0.595216 0.0
H_ H_ 0.788447 0.786785 0.641306 0.0
H_ H_ 0.937697 0.824876 0.631063 0.0
H_ H_ 0.778699 0.903364 0.78328 0.0
H_ H_ 0.756465 0.850974 0.751095 0.0
H_ H_ 0.693888 0.920902 0.685192 0.0
H_ H_ 0.714938 0.971767 0.719611 0.0
C_ C_ 0.772014 0.539998 0.727052 0.0
C_ C_ 0.762653 0.570771 0.707483 0.0
C_ C_ 0.715187 0.588822 0.710019 0.0
C_ C_ 0.706251 0.617352 0.690542 0.0
C_ C_ 0.747771 0.63051 0.671853 0.0
C_ C_ 0.794133 0.613273 0.669669 0.0
C_ C_ 0.800068 0.581574 0.685219 0.0
C_ C_ 0.814769 0.620719 0.641473 0.0
C_ C_ 0.742217 0.648598 0.645016 0.0
C_ C_ 0.830943 0.730298 0.592092 0.0
C_ C_ 0.80574 0.705623 0.611814 0.0
C_ C_ 0.804812 0.669032 0.605206 0.0
C_ C_ 0.829843 0.658066 0.579027 0.0
C_ C_ 0.853144 0.683656 0.559394 0.0
C_ C_ 0.968039 0.53623 0.667278 0.0
C_ C_ 0.998734 0.544726 0.639664 0.0
C_ C_ 0.717739 0.533773 0.636493 0.0
C_ C_ 0.746686 0.541779 0.610068 0.0
C_ C_ 0.721104 0.557109 0.585956 0.0
C_ C_ 0.00327863 0.568029 0.588977 0.0
C_ C_ 0.975938 0.56379 0.616129 0.0
C_ C_ 0.746357 0.579403 0.564863 0.0
C_ C_ 0.999445 0.596676 0.56969 0.0
C_ C_ 0.763715 0.657225 0.989051 0.0
C_ C_ 0.749875 0.62753 0.507008 0.0
C_ C_ 0.725461 0.632198 0.534798 0.0
C_ C_ 0.713699 0.666644 0.543627 0.0
C_ C_ 0.727456 0.695648 0.524758 0.0
C_ C_ 0.894653 0.710002 0.977052 0.0
C_ C_ 0.904014 0.679229 0.957483 0.0
C_ C_ 0.95148 0.661178 0.960019 0.0
C_ C_ 0.960415 0.632648 0.940542 0.0
C_ C_ 0.918896 0.61949 0.921853 0.0
C_ C_ 0.872534 0.636727 0.919669 0.0
C_ C_ 0.866599 0.668426 0.935219 0.0
C_ C_ 0.851898 0.629281 0.891473 0.0
C_ C_ 0.924449 0.601402 0.895016 0.0
C_ C_ 0.835724 0.519702 0.842092 0.0
C_ C_ 0.860926 0.544377 0.861814 0.0
C_ C_ 0.861855 0.580968 0.855206 0.0
C_ C_ 0.836823 0.591934 0.829027 0.0
C_ C_ 0.813523 0.566344 0.809394 0.0
C_ C_ 0.698628 0.71377 0.917278 0.0
C_ C_ 0.667933 0.705274 0.889664 0.0
C_ C_ 0.948927 0.716227 0.886493 0.0
C_ C_ 0.91998 0.708221 0.860068 0.0
C_ C_ 0.945562 0.692891 0.835956 0.0
C_ C_ 0.663388 0.681971 0.838977 0.0
C_ C_ 0.690729 0.68621 0.866129 0.0
C_ C_ 0.92031 0.670597 0.814863 0.0
C_ C_ 0.667221 0.653324 0.81969 0.0
C_ C_ 0.902952 0.592775 0.739051 0.0
C_ C_ 0.916792 0.62247 0.757008 0.0
C_ C_ 0.941206 0.617802 0.784798 0.0
C_ C_ 0.952968 0.583356 0.793627 0.0
C_ C_ 0.93921 0.554352 0.774758 0.0
C_ C_ 0.894653 0.960002 0.772948 0.0
C_ C_ 0.904014 0.929229 0.792517 0.0
C_ C_ 0.95148 0.911178 0.789981 0.0
C_ C_ 0.960415 0.882648 0.809458 0.0
C_ C_ 0.918896 0.86949 0.828147 0.0
C_ C_ 0.872534 0.886727 0.830331 0.0
C_ C_ 0.866599 0.918426 0.814781 0.0
C_ C_ 0.851898 0.879281 0.858527 0.0
C_ C_ 0.924449 0.851402 0.854984 0.0
C_ C_ 0.835724 0.769702 0.907908 0.0
C_ C_ 0.860926 0.794377 0.888186 0.0
C_ C_ 0.861855 0.830968 0.894794 0.0
C_ C_ 0.836823 0.841934 0.920973 0.0
C_ C_ 0.813523 0.816344 0.940606 0.0
C_ C_ 0.698628 0.96377 0.832722 0.0
C_ C_ 0.667933 0.955274 0.860336 0.0
C_ C_ 0.948927 0.966227 0.863507 0.0
C_ C_ 0.91998 0.958221 0.889932 0.0
C_ C_ 0.945562 0.942891 0.914044 0.0
C_ C_ 0.663388 0.931971 0.911023 0.0
C_ C_ 0.690729 0.93621 0.883871 0.0
C_ C_ 0.92031 0.920597 0.935137 0.0
C_ C_ 0.667221 0.903324 0.93031 0.0
C_ C_ 0.902952 0.842775 0.510949 0.0
C_ C_ 0.916792 0.87247 0.992992 0.0
C_ C_ 0.941206 0.867802 0.965202 0.0
C_ C_ 0.952968 0.833356 0.956373 0.0
C_ C_ 0.93921 0.804352 0.975242 0.0
C_ C_ 0.772014 0.789998 0.522948 0.0
C_ C_ 0.762653 0.820771 0.542517 0.0
C_ C_ 0.715187 0.838822 0.539981 0.0
C_ C_ 0.706251 0.867352 0.559458 0.0
C_ C_ 0.747771 0.88051 0.578147 0.0
C_ C_ 0.794133 0.863273 0.580331 0.0
C_ C_ 0.800068 0.831574 0.564781 0.0
C_ C_ 0.814769 0.870719 0.608527 0.0
C_ C_ 0.742217 0.898598 0.604984 0.0
C_ C_ 0.830943 0.980298 0.657908 0.0
C_ C_ 0.80574 0.955623 0.638186 0.0
C_ C_ 0.804812 0.919032 0.644794 0.0
C_ C_ 0.829843 0.908066 0.670973 0.0
C_ C_ 0.853144 0.933656 0.690606 0.0
C_ C_ 0.968039 0.78623 0.582722 0.0
C_ C_ 0.998734 0.794726 0.610336 0.0
C_ C_ 0.717739 0.783773 0.613507 0.0
C_ C_ 0.746686 0.791779 0.639932 0.0
C_ C_ 0.721104 0.807109 0.664044 0.0
C_ C_ 0.00327862 0.818029 0.661023 0.0
C_ C_ 0.975938 0.81379 0.633871 0.0
C_ C_ 0.746357 0.829403 0.685137 0.0
C_ C_ 0.999445 0.846676 0.68031 0.0
C_ C_ 0.763715 0.907225 0.760949 0.0
C_ C_ 0.749875 0.87753 0.742992 0.0
C_ C_ 0.725461 0.882198 0.715202 0.0
C_ C_ 0.713699 0.916644 0.706373 0.0
C_ C_ 0.727456 0.945648 0.725242 0.0
N_ N_ 0.852935 0.719087 0.566102 0.0
N_ N_ 0.783611 0.642872 0.626543 0.0
N_ N_ 0.711527 0.601806 0.55365 0.0
N_ N_ 0.754235 0.690701 0.4986 0.0
N_ N_ 0.813732 0.530913 0.816102 0.0
N_ N_ 0.883056 0.607128 0.876543 0.0
N_ N_ 0.95514 0.648194 0.80365 0.0
N_ N_ 0.912431 0.559299 0.7486 0.0
N_ N_ 0.813732 0.780913 0.933898 0.0
N_ N_ 0.883056 0.857128 0.873457 0.0
N_ N_ 0.95514 0.898194 0.94635 0.0
N_ N_ 0.912431 0.809299 0.00139979 0.0
N_ N_ 0.852935 0.969087 0.683898 0.0
N_ N_ 0.783611 0.892872 0.623457 0.0
N_ N_ 0.711527 0.851806 0.69635 0.0
N_ N_ 0.754235 0.940701 0.7514 0.0
O_ O_ 0.79885 0.514997 0.717173 0.0
O_ O_ 0.743984 0.534476 0.750578 0.0
O_ O_ 0.695457 0.655721 0.634274 0.0
O_ O_ 0.865986 0.620132 0.63586 0.0
O_ O_ 0.925653 0.551058 0.672831 0.0
O_ O_ 0.978891 0.510599 0.684197 0.0
O_ O_ 0.95354 0.605994 0.559287 0.0
O_ O_ 0.78749 0.569983 0.549288 0.0
O_ O_ 0.867816 0.735003 0.967173 0.0
O_ O_ 0.922682 0.715524 0.500578 0.0
O_ O_ 0.97121 0.594279 0.884274 0.0
O_ O_ 0.80068 0.629868 0.88586 0.0
O_ O_ 0.741013 0.698942 0.922831 0.0
O_ O_ 0.687776 0.739401 0.934197 0.0
O_ O_ 0.713127 0.644007 0.809287 0.0
O_ O_ 0.879177 0.680017 0.799288 0.0
O_ O_ 0.867816 0.985003 0.782827 0.0
O_ O_ 0.922682 0.965524 0.749422 0.0
O_ O_ 0.97121 0.844279 0.865726 0.0
O_ O_ 0.80068 0.879868 0.86414 0.0
O_ O_ 0.741013 0.948942 0.827169 0.0
O_ O_ 0.687776 0.989401 0.815803 0.0
O_ O_ 0.713127 0.894007 0.940713 0.0
O_ O_ 0.879177 0.930017 0.950712 0.0
O_ O_ 0.79885 0.764997 0.532827 0.0
O_ O_ 0.743984 0.784476 0.999422 0.0
O_ O_ 0.695457 0.905721 0.615726 0.0
O_ O_ 0.865986 0.870132 0.61414 0.0
O_ O_ 0.925653 0.801058 0.577169 0.0
O_ O_ 0.978891 0.760599 0.565803 0.0
O_ O_ 0.95354 0.855994 0.690713 0.0
O_ O_ 0.78749 0.819983 0.700712 0.0
