_cell_length_a 25.179
_cell_length_b 37.484199844079754
_cell_length_c 44.4702
_cell_angle_alpha 90.0
_cell_angle_beta 90.0
_cell_angle_gamma 94.03100043039683
_symmetry_space_group_name_H-M         'P 1'
_symmetry_Int_Tables_number            1
loop_
_symmetry_equiv_pos_as_xyz
   'x, y, z'
                         
loop_
_atom_site_label
_atom_site_type_symbol
_atom_site_fract_x 
_atom_site_fract_y
_atom_site_fract_z
_atom_site_charge
Cd Cd 0.233134 0.0148868 0.213039 0.0
Cd Cd 0.102293 0.241727 0.461083 0.0
Cd Cd 0.100012 0.487249 0.283948 0.0
Cd Cd 0.235639 0.263963 0.0376497 0.0
H_ H_ 0.0241526 0.0872645 0.230536 0.0
H_ H_ 0.344628 0.140372 0.203087 0.0
H_ H_ 0.17691 0.0717044 0.186803 0.0
H_ H_ 0.199042 0.266328 0.108662 0.0
H_ H_ 0.171323 0.228392 0.148369 0.0
H_ H_ 0.1351 0.147076 0.082522 0.0
H_ H_ 0.170899 0.185669 0.0436367 0.0
H_ H_ 0.0674247 0.0172431 0.1542 0.0
H_ H_ 0.121691 0.0404372 0.110499 0.0
H_ H_ 0.266431 0.0748264 0.116331 0.0
H_ H_ 0.11126 0.154183 0.465715 0.0
H_ H_ 0.0807335 0.100131 0.994945 0.0
H_ H_ 0.0292305 0.171374 0.0666813 0.0
H_ H_ 0.0560411 0.225865 0.0321125 0.0
H_ H_ 0.262379 0.145973 0.504246 0.0
H_ H_ 1.00112 0.124554 0.437294 0.0
H_ H_ 0.181588 0.189612 0.427495 0.0
H_ H_ 0.148672 0.480652 0.353543 0.0
H_ H_ 0.152022 0.0269382 0.399698 0.0
H_ H_ 0.214934 0.100474 0.334108 0.0
H_ H_ 0.169229 0.0628061 0.292682 0.0
H_ H_ 0.269753 0.235737 0.402364 0.0
H_ H_ 0.216162 0.214287 0.359024 0.0
H_ H_ 0.0617129 0.172703 0.371961 0.0
H_ H_ 0.242206 0.103263 0.215249 0.0
H_ H_ 0.254429 0.151601 0.253775 0.0
H_ H_ 0.315706 0.0728913 0.313622 0.0
H_ H_ 0.288524 0.0274947 0.278794 0.0
H_ H_ 0.307384 0.413516 0.266666 0.0
H_ H_ 0.99371294 0.367005 0.305633 0.0
H_ H_ 0.167208 0.433636 0.316822 0.0
H_ H_ 0.144815 0.319272 0.450808 0.0
H_ H_ 0.206161 0.356527 0.416895 0.0
H_ H_ 0.17922 0.274164 0.351273 0.0
H_ H_ 0.155059 0.231781 0.39167 0.0
H_ H_ 0.271481 0.48654 0.355318 0.0
H_ H_ 0.232762 0.469062 0.406989 0.0
H_ H_ 0.0633882 0.427002 0.38012 0.0
H_ H_ 0.230741 0.347176 0.0367839 0.0
H_ H_ 0.298483 0.399993 0.505821 0.0
H_ H_ 0.309195 0.32362 0.435694 0.0
H_ H_ 0.272124 0.277569 0.47001 0.0
H_ H_ 0.0220068 0.334228 0.0223336 0.0
H_ H_ 0.334723 0.380259 0.0573515 0.0
H_ H_ 0.173956 0.315977 0.0685685 0.0
H_ H_ 0.188696 0.0202077 0.145138 0.0
H_ H_ 0.165404 0.479388 0.101068 0.0
H_ H_ 0.153222 0.391977 0.163231 0.0
H_ H_ 0.191545 0.431071 0.203482 0.0
H_ H_ 0.0688197 0.270431 0.0942005 0.0
H_ H_ 0.116045 0.283574 0.142305 0.0
H_ H_ 0.271566 0.323803 0.132454 0.0
H_ H_ 0.122634 0.399987 0.279394 0.0
H_ H_ 0.111884 0.353358 0.242046 0.0
H_ H_ 0.00723752 0.421292 0.194109 0.0
H_ H_ 0.0443122 0.471025 0.223501 0.0
C_ C_ 0.1057 0.0408061 0.229695 0.0
C_ C_ 0.097949 0.0723158 0.208848 0.0
C_ C_ 0.0498204 0.0894464 0.210062 0.0
C_ C_ 0.0393874 0.115082 0.188886 0.0
C_ C_ 0.0766803 0.122673 0.165925 0.0
C_ C_ 0.127465 0.107611 0.167647 0.0
C_ C_ 0.13911 0.0835349 0.189001 0.0
C_ C_ 0.163354 0.131287 0.153934 0.0
C_ C_ 0.0849069 0.154697 0.149981 0.0
C_ C_ 0.193362 0.239297 0.10364 0.0
C_ C_ 0.178725 0.216064 0.126546 0.0
C_ C_ 0.156212 0.18207 0.119783 0.0
C_ C_ 0.151651 0.17219 0.0897581 0.0
C_ C_ 0.171769 0.194427 0.0669555 0.0
C_ C_ 0.298988 0.0364117 0.164774 0.0
C_ C_ 0.32988 0.0421967 0.135442 0.0
C_ C_ 0.0495887 0.0353665 0.13708 0.0
C_ C_ 0.081229 0.0464662 0.111668 0.0
C_ C_ 0.0555259 0.0573754 0.086789 0.0
C_ C_ 0.330416 0.0661575 0.0861645 0.0
C_ C_ 0.306185 0.062742 0.113712 0.0
C_ C_ 0.0795167 0.0781916 0.0629795 0.0
C_ C_ 0.324468 0.0933608 0.0644722 0.0
C_ C_ 0.0934933 0.159531 0.487248 0.0
C_ C_ 0.079394 0.127292 0.00508998 0.0
C_ C_ 0.0584578 0.132758 0.0345026 0.0
C_ C_ 0.0475569 0.167991 0.0441369 0.0
C_ C_ 0.0602999 0.196456 0.0247169 0.0
C_ C_ 0.227208 0.210965 0.48273 0.0
C_ C_ 0.227178 0.174159 0.467582 0.0
C_ C_ 0.248406 0.14415 0.481821 0.0
C_ C_ 0.251122 0.110432 0.466481 0.0
C_ C_ 0.223074 0.107403 0.439484 0.0
C_ C_ 0.194573 0.132845 0.427843 0.0
C_ C_ 0.199152 0.16751 0.43942 0.0
C_ C_ 0.185134 0.125278 0.397853 0.0
C_ C_ 0.226325 0.0815728 0.416638 0.0
C_ C_ 0.133249 0.0129852 0.353176 0.0
C_ C_ 0.15375 0.0347955 0.375752 0.0
C_ C_ 0.181554 0.0676557 0.368115 0.0
C_ C_ 0.188768 0.07712 0.338783 0.0
C_ C_ 0.164749 0.0544117 0.316855 0.0
C_ C_ 0.0323115 0.215859 0.415831 0.0
C_ C_ 0.000550096 0.204762 0.389634 0.0
C_ C_ 0.28541 0.215645 0.388827 0.0
C_ C_ 0.253591 0.203007 0.363884 0.0
C_ C_ 0.266185 0.170994 0.349865 0.0
C_ C_ 0.996379 0.180882 0.338972 0.0
C_ C_ 0.023619 0.186369 0.366092 0.0
C_ C_ 0.25963 0.16483 0.319862 0.0
C_ C_ -0.0011020000000000474 0.151886 0.320552 0.0
C_ C_ 0.244852 0.0963042 0.23967 0.0
C_ C_ 0.261946 0.123578 0.258981 0.0
C_ C_ 0.285196 0.11613 0.286883 0.0
C_ C_ 0.292002 0.079797 0.294559 0.0
C_ C_ 0.278409 0.0538936 0.272965 0.0
C_ C_ 0.22752 0.459582 0.272033 0.0
C_ C_ 0.239801 0.430095 0.292566 0.0
C_ C_ 0.284027 0.410018 0.286336 0.0
C_ C_ 0.298363 0.384471 0.308694 0.0
C_ C_ 0.267413 0.379589 0.334582 0.0
C_ C_ 0.219162 0.395865 0.337432 0.0
C_ C_ 0.20391 0.419777 0.315266 0.0
C_ C_ 0.184149 0.372006 0.351795 0.0
C_ C_ 0.260028 0.346081 0.347286 0.0
C_ C_ 0.16533 0.307093 0.431775 0.0
C_ C_ 0.192844 0.328937 0.411012 0.0
C_ C_ 0.192907 0.317119 0.380449 0.0
C_ C_ 0.177088 0.282537 0.373575 0.0
C_ C_ 0.159935 0.260115 0.395993 0.0
C_ C_ 0.0309567 0.463209 0.330175 0.0
C_ C_ 0.00017000000000000348 0.454271 0.358943 0.0
C_ C_ 0.294868 0.470998 0.371667 0.0
C_ C_ 0.272499 0.462528 0.400663 0.0
C_ C_ 0.303272 0.444026 0.421613 0.0
C_ C_ 0.996507 0.431539 0.410463 0.0
C_ C_ 0.0213743 0.433311 0.382001 0.0
C_ C_ 0.282116 0.422448 0.444077 0.0
C_ C_ 0.00138755 0.404309 0.431016 0.0
C_ C_ 0.242994 0.343665 0.0131648 0.0
C_ C_ 0.295533 0.373368 0.498994 0.0
C_ C_ 0.302876 0.365973 0.469947 0.0
C_ C_ 0.303646 0.330612 0.45982 0.0
C_ C_ 0.279309 0.304307 0.47835 0.0
C_ C_ 0.110877 0.292687 0.0201788 0.0
C_ C_ 0.0992719 0.320432 0.0431896 0.0
C_ C_ 0.0519409 0.340067 0.039678 0.0
C_ C_ 0.0399522 0.364988 0.0608893 0.0
C_ C_ 0.0758352 0.370919 0.0854734 0.0
C_ C_ 0.122663 0.352881 0.0886567 0.0
C_ C_ 0.136801 0.330291 0.0663123 0.0
C_ C_ 0.158917 0.378225 0.10035 0.0
C_ C_ 0.086292 0.40342 0.0999773 0.0
C_ C_ 0.185835 0.489558 0.149306 0.0
C_ C_ 0.170124 0.467293 0.124692 0.0
C_ C_ 0.157218 0.431012 0.129752 0.0
C_ C_ 0.163639 0.417935 0.158645 0.0
C_ C_ 0.180599 0.441022 0.181689 0.0
C_ C_ 0.310862 0.28992 0.0825463 0.0
C_ C_ 0.33631 0.295982 0.111795 0.0
C_ C_ 0.0492363 0.283672 0.113335 0.0
C_ C_ 0.0781377 0.292366 0.139823 0.0
C_ C_ 0.0528156 0.305934 0.165025 0.0
C_ C_ 0.335209 0.315077 0.163833 0.0
C_ C_ 0.31006 0.312274 0.135518 0.0
C_ C_ 0.0785421 0.328868 0.185474 0.0
C_ C_ 0.329109 0.343317 0.183724 0.0
C_ C_ 0.103946 0.406057 0.258487 0.0
C_ C_ 0.0921655 0.378094 0.239792 0.0
C_ C_ 0.0574218 0.381901 0.215784 0.0
C_ C_ 0.0383293 0.416339 0.21103 0.0
C_ C_ 0.0587933 0.444788 0.226937 0.0
N_ N_ 0.19157 0.227368 0.0737762 0.0
N_ N_ 0.136062 0.160487 0.144185 0.0
N_ N_ 0.0453101 0.101374 0.053384 0.0
N_ N_ 0.0807196 0.190004 0.996744 0.0
N_ N_ 0.139932 0.0212472 0.323879 0.0
N_ N_ 0.203 0.09186 0.391195 0.0
N_ N_ 0.29693 0.144371 0.308595 0.0
N_ N_ 0.250844 0.0616494 0.247059 0.0
N_ N_ 0.153441 0.272239 0.424741 0.0
N_ N_ 0.208311 0.341607 0.357303 0.0
N_ N_ 0.311714 0.394532 0.448797 0.0
N_ N_ 0.263275 0.312645 0.507702 0.0
N_ N_ 0.190281 0.475936 0.176891 0.0
N_ N_ 0.139016 0.40897 0.106522 0.0
N_ N_ 0.0452796 0.353949 0.194683 0.0
N_ N_ 0.0913831 0.439897 0.251073 0.0
O_ O_ 0.135788 0.0167019 0.222454 0.0
O_ O_ 0.0802685 0.0363683 0.253321 0.0
O_ O_ 0.053937 0.181144 0.153276 0.0
O_ O_ 0.216061 0.132251 0.159392 0.0
O_ O_ 0.269296 0.0596665 0.175227 0.0
O_ O_ 0.299775 0.00709546 0.178382 0.0
O_ O_ 0.291092 0.117291 0.0664256 0.0
O_ O_ 0.130615 0.0857976 0.0608328 0.0
O_ O_ 0.199772 0.23479 0.470324 0.0
O_ O_ 0.254756 0.211117 0.00758753 0.0
O_ O_ 0.243228 0.0492522 0.42024 0.0
O_ O_ 0.142196 0.13665 0.384437 0.0
O_ O_ 0.0741787 0.200785 0.422773 0.0
O_ O_ 0.0224877 0.243843 0.429753 0.0
O_ O_ 0.0449602 0.142913 0.310087 0.0
O_ O_ 0.213324 0.169141 0.305799 0.0
O_ O_ 0.198432 0.484094 0.281573 0.0
O_ O_ 0.256696 0.464828 0.249003 0.0
O_ O_ 0.299224 0.32897 0.359688 0.0
O_ O_ 0.131706 0.373384 0.34833 0.0
O_ O_ 0.0724358 0.448333 0.32357 0.0
O_ O_ 0.0182456 0.488119 0.312903 0.0
O_ O_ 0.0477265 0.395202 0.441565 0.0
O_ O_ 0.229666 0.420801 0.449402 0.0
O_ O_ 0.138197 0.267622 0.0289696 0.0
O_ O_ 0.0824336 0.289284 0.495474 0.0
O_ O_ 0.0556284 0.43065 0.0972996 0.0
O_ O_ 0.209159 0.371786 0.105749 0.0
O_ O_ 0.267901 0.303047 0.0770402 0.0
O_ O_ 0.321144 0.263988 0.0665862 0.0
O_ O_ 0.291729 0.36607 0.181347 0.0
O_ O_ 0.131421 0.336077 0.186953 0.0
Cd Cd 0.232686 0.00924029 0.712871 0.0
Cd Cd 0.10275 0.236623 0.963262 0.0
Cd Cd 0.105211 0.488738 0.784503 0.0
Cd Cd 0.230569 0.265035 0.539202 0.0
H_ H_ 0.0196599 0.0784939 0.723999 0.0
H_ H_ 0.430501 0.166426 0.728883 0.0
H_ H_ 0.17051 0.0743026 0.682166 0.0
H_ H_ 0.163542 0.261607 0.594458 0.0
H_ H_ 0.117203 0.219911 0.630629 0.0
H_ H_ 0.161506 0.130685 0.575238 0.0
H_ H_ 0.205079 0.173374 0.540241 0.0
H_ H_ 0.0777666 0.0314137 0.656867 0.0
H_ H_ 0.122914 0.0417721 0.608291 0.0
H_ H_ 0.270485 0.0672392 0.616119 0.0
H_ H_ 0.097705 0.151577 0.963796 0.0
H_ H_ 0.0908491 0.10393 0.497862 0.0
H_ H_ 0.0251881 0.174893 0.563296 0.0
H_ H_ 0.0470464 0.22417 0.528399 0.0
H_ H_ 0.283031 0.145972 0.995714 0.0
H_ H_ 0.992462 0.115606 0.945508 0.0
H_ H_ 0.181173 0.193594 0.929065 0.0
H_ H_ 0.17476 0.490761 0.841324 0.0
H_ H_ 0.17429 0.0212442 0.896714 0.0
H_ H_ 0.149436 0.11137 0.840897 0.0
H_ H_ 0.133744 0.0720076 0.79663 0.0
H_ H_ 0.273512 0.226734 0.897153 0.0
H_ H_ 0.226178 0.200731 0.851512 0.0
H_ H_ 0.0655356 0.176475 0.868182 0.0
H_ H_ 0.245369 0.0956196 0.71123 0.0
H_ H_ 0.28372 0.143822 0.740503 0.0
H_ H_ 0.323655 0.0727687 0.811227 0.0
H_ H_ 0.306169 0.022716 0.770971 0.0
H_ H_ 0.230286 0.395402 0.737153 0.0
H_ H_ 0.0013499999999999623 0.376301 0.814169 0.0
H_ H_ 0.192449 0.442137 0.820059 0.0
H_ H_ 0.0616893 0.301997 0.92646 0.0
H_ H_ 0.0848378 0.337878 0.881576 0.0
H_ H_ 0.239667 0.297087 0.879901 0.0
H_ H_ 0.210406 0.25444 0.920506 0.0
H_ H_ 0.262517 0.476085 0.841211 0.0
H_ H_ 0.213637 0.456127 0.887314 0.0
H_ H_ 0.0589417 0.417308 0.879457 0.0
H_ H_ 0.265122 0.353096 0.541086 0.0
H_ H_ 0.23637 0.397466 1.00248612 0.0
H_ H_ 0.290986 0.329639 0.933988 0.0
H_ H_ 0.267687 0.277893 0.967065 0.0
H_ H_ 0.016137 0.321021 0.53268 0.0
H_ H_ 0.450904 0.418387 0.516342 0.0
H_ H_ 0.184362 0.331695 0.555655 0.0
H_ H_ 0.167386 0.010548 0.649734 0.0
H_ H_ 0.154545 0.475367 0.604547 0.0
H_ H_ 0.153942 0.393527 0.669054 0.0
H_ H_ 0.18509 0.439727 0.706941 0.0
H_ H_ 0.0697589 0.277244 0.592472 0.0
H_ H_ 0.122885 0.283859 0.641097 0.0
H_ H_ 0.315377 0.350728 0.609757 0.0
H_ H_ 0.0967553 0.403554 0.788184 0.0
H_ H_ 0.0772186 0.349887 0.75574 0.0
H_ H_ 0.0240905 0.419537 0.687694 0.0
H_ H_ 0.0573421 0.470981 0.718639 0.0
C_ C_ 0.107779 0.0437526 0.727237 0.0
C_ C_ 0.100566 0.0775276 0.711025 0.0
C_ C_ 0.052146 0.0929777 0.711808 0.0
C_ C_ 0.0401811 0.120347 0.693089 0.0
C_ C_ 0.08226 0.136959 0.676422 0.0
C_ C_ 0.131779 0.1224 0.675115 0.0
C_ C_ 0.139308 0.0910202 0.689965 0.0
C_ C_ 0.153502 0.129701 0.64762 0.0
C_ C_ 0.0765741 0.152547 0.648034 0.0
C_ C_ 0.161058 0.232513 0.588939 0.0
C_ C_ 0.135335 0.209276 0.609786 0.0
C_ C_ 0.139606 0.170832 0.606647 0.0
C_ C_ 0.163191 0.158348 0.581351 0.0
C_ C_ 0.186896 0.183837 0.560368 0.0
C_ C_ 0.302638 0.0274335 0.662791 0.0
C_ C_ 0.330005 0.0337187 0.633202 0.0
C_ C_ 0.0541387 0.0348309 0.636996 0.0
C_ C_ 0.0820439 0.0462995 0.611037 0.0
C_ C_ 0.05521 0.0570802 0.586524 0.0
C_ C_ 0.336679 0.0670034 0.587231 0.0
C_ C_ 0.308785 0.0575776 0.61244 0.0
C_ C_ 0.0794737 0.0804578 0.564349 0.0
C_ C_ 0.335611 0.100032 0.572347 0.0
C_ C_ 0.0896875 0.156855 0.987235 0.0
C_ C_ 0.0810148 0.13022 0.50575 0.0
C_ C_ 0.0582232 0.133761 0.534222 0.0
C_ C_ 0.0410017 0.168934 0.541593 0.0
C_ C_ 0.0609611 0.198246 0.523873 0.0
C_ C_ 0.224132 0.205797 0.985689 0.0
C_ C_ 0.233363 0.175042 0.964911 0.0
C_ C_ 0.265257 0.147145 0.973515 0.0
C_ C_ 0.275137 0.119576 0.952326 0.0
C_ C_ 0.246028 0.116864 0.925786 0.0
C_ C_ 0.214765 0.143624 0.916123 0.0
C_ C_ 0.206031 0.172746 0.935753 0.0
C_ C_ 0.177271 0.126563 0.896864 0.0
C_ C_ 0.228257 0.0859312 0.911635 0.0
C_ C_ 0.155443 0.00944131 0.847711 0.0
C_ C_ 0.167397 0.0323122 0.873004 0.0
C_ C_ 0.170554 0.068656 0.868979 0.0
C_ C_ 0.154203 0.0830092 0.84239 0.0
C_ C_ 0.143148 0.0597151 0.818226 0.0
C_ C_ 0.0304923 0.211404 0.917482 0.0
C_ C_ 0.000520000000000076 0.203538 0.890265 0.0
C_ C_ 0.29353 0.210189 0.881257 0.0
C_ C_ 0.268694 0.201038 0.85416 0.0
C_ C_ 0.298335 0.186394 0.831307 0.0
C_ C_ 0.998707 0.18243 0.839139 0.0
C_ C_ 0.0256265 0.186713 0.865848 0.0
C_ C_ 0.276229 0.164202 0.810326 0.0
C_ C_ 0.00350115 0.15551 0.817815 0.0
C_ C_ 0.261409 0.0905923 0.733422 0.0
C_ C_ 0.286315 0.118212 0.749431 0.0
C_ C_ 0.301718 0.111862 0.779048 0.0
C_ C_ 0.306637 0.077587 0.788175 0.0
C_ C_ 0.290038 0.0497834 0.76925 0.0
C_ C_ 0.221602 0.459587 0.764055 0.0
C_ C_ 0.214191 0.423421 0.777397 0.0
C_ C_ 0.223999 0.393302 0.76123 0.0
C_ C_ 0.228241 0.358962 0.776358 0.0
C_ C_ 0.223725 0.357587 0.808876 0.0
C_ C_ 0.212036 0.387658 0.823397 0.0
C_ C_ 0.204553 0.419362 0.808236 0.0
C_ C_ 0.183142 0.376828 0.84969 0.0
C_ C_ 0.200767 0.328552 0.825354 0.0
C_ C_ 0.0993401 0.299452 0.913461 0.0
C_ C_ 0.111529 0.31822 0.888785 0.0
C_ C_ 0.162562 0.319575 0.876995 0.0
C_ C_ 0.20018 0.297248 0.888648 0.0
C_ C_ 0.183358 0.273536 0.911657 0.0
C_ C_ 0.0337176 0.464704 0.833542 0.0
C_ C_ 1.00254285 0.454161 0.859583 0.0
C_ C_ 0.280492 0.460266 0.85896 0.0
C_ C_ 0.254349 0.452287 0.886146 0.0
C_ C_ 0.280162 0.439881 0.911491 0.0
C_ C_ 0.998285 0.432713 0.910773 0.0
C_ C_ 0.0256307 0.434844 0.883835 0.0
C_ C_ 0.254158 0.421544 0.9356 0.0
C_ C_ 0.000361563 0.404059 0.930863 0.0
C_ C_ 0.273132 0.346286 0.518494 0.0
C_ C_ 0.245683 0.37193 0.993276 0.0
C_ C_ 0.267356 0.368031 0.964421 0.0
C_ C_ 0.276893 0.333402 0.95504 0.0
C_ C_ 0.265722 0.305323 0.97474 0.0
C_ C_ 0.111794 0.294373 0.519351 0.0
C_ C_ 0.101899 0.323924 0.540242 0.0
C_ C_ 0.0493605 0.335652 0.542652 0.0
C_ C_ 0.0409247 0.366375 0.560162 0.0
C_ C_ 0.0861261 0.388131 0.56957 0.0
C_ C_ 0.137021 0.37628 0.567724 0.0
C_ C_ 0.143411 0.34214 0.554972 0.0
C_ C_ 0.166667 0.390739 0.593225 0.0
C_ C_ 0.0845034 0.406377 0.596523 0.0
C_ C_ 0.185315 0.491458 0.646574 0.0
C_ C_ 0.159426 0.468361 0.62713 0.0
C_ C_ 0.14938 0.432261 0.634972 0.0
C_ C_ 0.156078 0.422318 0.663202 0.0
C_ C_ 0.177402 0.447206 0.684248 0.0
C_ C_ 0.29373 0.281096 0.590605 0.0
C_ C_ 0.330369 0.294497 0.615059 0.0
C_ C_ 0.0508537 0.284828 0.612661 0.0
C_ C_ 0.0808146 0.29144 0.639466 0.0
C_ C_ 0.055361 0.306912 0.664522 0.0
C_ C_ 0.375625 0.341956 0.644064 0.0
C_ C_ 0.340933 0.331377 0.619981 0.0
C_ C_ 0.0784843 0.329436 0.6855 0.0
C_ C_ 0.366174 0.370164 0.664272 0.0
C_ C_ 0.0896351 0.407237 0.763674 0.0
C_ C_ 0.0750078 0.375611 0.745737 0.0
C_ C_ 0.0546444 0.380502 0.717199 0.0
C_ C_ 0.0457594 0.414694 0.707078 0.0
C_ C_ 0.0598024 0.444549 0.725923 0.0
N_ N_ 0.184294 0.219053 0.564104 0.0
N_ N_ 0.119122 0.145937 0.630237 0.0
N_ N_ 0.0445526 0.101199 0.552883 0.0
N_ N_ 0.0858707 0.192629 0.497475 0.0
N_ N_ 0.147891 0.0242733 0.820557 0.0
N_ N_ 0.186043 0.0916919 0.894083 0.0
N_ N_ 0.312432 0.142914 0.799099 0.0
N_ N_ 0.260915 0.0563474 0.743932 0.0
N_ N_ 0.134224 0.275962 0.92398 0.0
N_ N_ 0.175657 0.340593 0.850472 0.0
N_ N_ 0.286004 0.398243 0.946456 0.0
N_ N_ 0.250307 0.311114 0.00377124 0.0
N_ N_ 0.195208 0.480546 0.674792 0.0
N_ N_ 0.132613 0.406488 0.611057 0.0
N_ N_ 0.0439707 0.350531 0.697404 0.0
N_ N_ 0.0858741 0.440278 0.752411 0.0
O_ O_ 0.135615 0.020995 0.716042 0.0
O_ O_ 0.0765644 0.033121 0.748252 0.0
O_ O_ 0.0282543 0.158213 0.637127 0.0
O_ O_ 0.191581 0.111743 0.636659 0.0
O_ O_ 0.263713 0.0448571 0.668962 0.0
O_ O_ 0.309755 0.00197835 0.680446 0.0
O_ O_ 0.310669 0.12655 0.583394 0.0
O_ O_ 0.125641 0.075285 0.551004 0.0
O_ O_ 0.198208 0.23063 0.977657 0.0
O_ O_ 0.257422 0.218467 0.505355 0.0
O_ O_ 0.260996 0.0611645 0.906357 0.0
O_ O_ 0.12879 0.137041 0.894574 0.0
O_ O_ 0.0732003 0.19753 0.921909 0.0
O_ O_ 0.0165267 0.232228 0.937284 0.0
O_ O_ 0.0390187 0.131328 0.820231 0.0
O_ O_ 0.223814 0.155026 0.807133 0.0
O_ O_ 0.198173 0.484885 0.774305 0.0
O_ O_ 0.255018 0.465705 0.7439 0.0
O_ O_ 0.190909 0.295118 0.814835 0.0
O_ O_ 0.148006 0.396242 0.861143 0.0
O_ O_ 0.0796437 0.453395 0.829564 0.0
O_ O_ 0.0205288 0.488774 0.8162 0.0
O_ O_ 0.0440895 0.391031 0.941017 0.0
O_ O_ 0.201156 0.41619 0.937695 0.0
O_ O_ 0.136915 0.267522 0.529349 0.0
O_ O_ 0.0837793 0.288158 0.995445 0.0
O_ O_ 0.0410808 0.413884 0.610855 0.0
O_ O_ 0.209133 0.375557 0.603969 0.0
O_ O_ 0.253061 0.297947 0.584588 0.0
O_ O_ 0.304503 0.255428 0.573649 0.0
O_ O_ 0.332135 0.394429 0.658925 0.0
O_ O_ 0.128865 0.32954 0.694713 0.0
Cd Cd 0.232383 0.512731 0.214624 0.0
Cd Cd 0.104014 0.738607 0.463389 0.0
Cd Cd 0.101578 0.985794 0.284784 0.0
Cd Cd 0.231087 0.7639 0.0363926 0.0
H_ H_ 0.0197499 0.578631 0.224098 0.0
H_ H_ 0.335118 0.628681 0.189521 0.0
H_ H_ 0.176173 0.570829 0.181918 0.0
H_ H_ 0.160327 0.761373 0.098007 0.0
H_ H_ 0.133579 0.717703 0.136807 0.0
H_ H_ 0.170161 0.632425 0.0769763 0.0
H_ H_ 0.213263 0.676298 0.0445278 0.0
H_ H_ 0.0660812 0.51718 0.154107 0.0
H_ H_ 0.116289 0.53122 0.10854 0.0
H_ H_ 0.27306 0.574246 0.119464 0.0
H_ H_ 0.0954563 0.654647 0.463902 0.0
H_ H_ 0.0748528 0.601412 0.998707 0.0
H_ H_ 0.039431 0.669925 0.0680682 0.0
H_ H_ 0.0567805 0.72395 0.0353901 0.0
H_ H_ 0.290564 0.655724 0.48904 0.0
H_ H_ 1.000891876 0.627184 0.435271 0.0
H_ H_ 0.164781 0.687492 0.432229 0.0
H_ H_ 0.116187 0.986729 0.358907 0.0
H_ H_ 0.187034 0.519886 0.392673 0.0
H_ H_ 0.161826 0.611557 0.337703 0.0
H_ H_ 0.13367 0.569943 0.296506 0.0
H_ H_ 0.265978 0.73214 0.404331 0.0
H_ H_ 0.208202 0.708744 0.361636 0.0
H_ H_ 0.0641575 0.680198 0.367326 0.0
H_ H_ 0.245559 0.599134 0.213713 0.0
H_ H_ 0.258116 0.651451 0.248318 0.0
H_ H_ 0.304827 0.578015 0.317104 0.0
H_ H_ 0.273499 0.527212 0.283286 0.0
H_ H_ 0.297417 0.910237 0.258889 0.0
H_ H_ 1.0011237099999999 0.87473 0.31307 0.0
H_ H_ 0.187454 0.943987 0.324968 0.0
H_ H_ 0.173105 0.74146 0.406411 0.0
H_ H_ 0.198341 0.776989 0.364833 0.0
H_ H_ 0.17347 0.869738 0.419423 0.0
H_ H_ 0.114003 0.827974 0.451402 0.0
H_ H_ 0.265718 0.977423 0.343204 0.0
H_ H_ 0.21362 0.965513 0.392827 0.0
H_ H_ 0.0630009 0.923831 0.381576 0.0
H_ H_ 0.217714 0.84487 0.0334821 0.0
H_ H_ 0.253246 0.902763 0.502773 0.0
H_ H_ 0.30396 0.832075 0.433977 0.0
H_ H_ 0.279097 0.782907 0.467221 0.0
H_ H_ 0.027133 0.837903 0.0171627 0.0
H_ H_ 0.335438 0.880127 0.0586486 0.0
H_ H_ 0.165644 0.816882 0.0675042 0.0
H_ H_ 0.188678 0.517884 0.145862 0.0
H_ H_ 0.152663 0.976229 0.105957 0.0
H_ H_ 0.143564 0.893551 0.170317 0.0
H_ H_ 0.177188 0.938145 0.20833 0.0
H_ H_ 0.0714503 0.772443 0.0938604 0.0
H_ H_ 0.120496 0.785333 0.141209 0.0
H_ H_ 0.270873 0.827547 0.12846 0.0
H_ H_ 0.112431 0.899361 0.284889 0.0
H_ H_ 0.0872974 0.846035 0.25319 0.0
H_ H_ 0.0247828 0.917847 0.186949 0.0
H_ H_ 0.0554522 0.967784 0.218524 0.0
C_ C_ 0.111344 0.542915 0.228958 0.0
C_ C_ 0.100807 0.572154 0.208402 0.0
C_ C_ 0.0511783 0.588389 0.210067 0.0
C_ C_ 0.0411823 0.618013 0.191309 0.0
C_ C_ 0.0827097 0.632132 0.174418 0.0
C_ C_ 0.131608 0.615679 0.172025 0.0
C_ C_ 0.138541 0.584133 0.185875 0.0
C_ C_ 0.15188 0.623785 0.143084 0.0
C_ C_ 0.0782904 0.650988 0.148907 0.0
C_ C_ 0.159779 0.734066 0.0933955 0.0
C_ C_ 0.141299 0.709082 0.114545 0.0
C_ C_ 0.140918 0.672435 0.107514 0.0
C_ C_ 0.164839 0.660866 0.081586 0.0
C_ C_ 0.187146 0.685776 0.061507 0.0
C_ C_ 0.30454 0.538718 0.168767 0.0
C_ C_ 0.333699 0.546597 0.141383 0.0
C_ C_ 0.0492919 0.533422 0.136847 0.0
C_ C_ 0.0800133 0.541226 0.110502 0.0
C_ C_ 0.0553982 0.558681 0.0872914 0.0
C_ C_ 0.337483 0.569808 0.0902799 0.0
C_ C_ 0.311909 0.566676 0.118151 0.0
C_ C_ 0.0820985 0.582144 0.0667486 0.0
C_ C_ 0.333149 0.598823 0.0715526 0.0
C_ C_ 0.0859695 0.657915 0.487749 0.0
C_ C_ 0.0750171 0.628652 0.00783927 0.0
C_ C_ 0.0575967 0.63372 0.0357697 0.0
C_ C_ 0.0515862 0.667575 0.0460794 0.0
C_ C_ 0.0660211 0.697393 0.0275748 0.0
C_ C_ 0.224398 0.710617 0.479197 0.0
C_ C_ 0.228632 0.675967 0.461599 0.0
C_ C_ 0.267417 0.652441 0.468653 0.0
C_ C_ 0.282203 0.62678 0.447483 0.0
C_ C_ 0.253198 0.624266 0.421217 0.0
C_ C_ 0.211336 0.645441 0.415553 0.0
C_ C_ 0.196402 0.670951 0.435891 0.0
C_ C_ 0.17568 0.624604 0.398059 0.0
C_ C_ 0.241939 0.592928 0.4059 0.0
C_ C_ 0.155365 0.509567 0.348779 0.0
C_ C_ 0.175441 0.53223 0.371852 0.0
C_ C_ 0.17744 0.569471 0.367984 0.0
C_ C_ 0.165498 0.582883 0.340259 0.0
C_ C_ 0.147894 0.559663 0.317882 0.0
C_ C_ 0.032897 0.717078 0.414941 0.0
C_ C_ 0.000921066 0.706163 0.388455 0.0
C_ C_ 0.282298 0.717642 0.386863 0.0
C_ C_ 0.25227 0.707963 0.361306 0.0
C_ C_ 0.276838 0.691647 0.33734 0.0
C_ C_ 0.996507 0.682572 0.338662 0.0
C_ C_ 0.0247243 0.688077 0.364805 0.0
C_ C_ 0.252597 0.668742 0.316606 0.0
C_ C_ 0.000192091 0.65483 0.319049 0.0
C_ C_ 0.246503 0.594726 0.237425 0.0
C_ C_ 0.259869 0.623421 0.255779 0.0
C_ C_ 0.273902 0.618032 0.285343 0.0
C_ C_ 0.281894 0.583399 0.295405 0.0
C_ C_ 0.263537 0.55438 0.276889 0.0
C_ C_ 0.228488 0.961294 0.269769 0.0
C_ C_ 0.238703 0.929935 0.288726 0.0
C_ C_ 0.276169 0.905472 0.279749 0.0
C_ C_ 0.279535 0.871906 0.294336 0.0
C_ C_ 0.249248 0.867409 0.321249 0.0
C_ C_ 0.21088 0.890167 0.328477 0.0
C_ C_ 0.20922 0.923186 0.314944 0.0
C_ C_ 0.191492 0.880338 0.356568 0.0
C_ C_ 0.254005 0.844094 0.345282 0.0
C_ C_ 0.168325 0.768646 0.408729 0.0
C_ C_ 0.18921 0.790443 0.385602 0.0
C_ C_ 0.195277 0.827687 0.390632 0.0
C_ C_ 0.168412 0.841429 0.415179 0.0
C_ C_ 0.140493 0.818303 0.435378 0.0
C_ C_ 0.0311077 0.960273 0.331458 0.0
C_ C_ -0.00203721 0.951829 0.359143 0.0
C_ C_ 0.283582 0.965203 0.363189 0.0
C_ C_ 0.256888 0.959358 0.38989 0.0
C_ C_ 0.283842 0.946401 0.414994 0.0
C_ C_ 0.997503 0.932386 0.41089 0.0
C_ C_ 0.0229086 0.935096 0.383383 0.0
C_ C_ 0.259536 0.92822 0.438698 0.0
C_ C_ 1.00146519 0.904457 0.43132 0.0
C_ C_ 0.23197 0.842048 0.0112266 0.0
C_ C_ 0.251944 0.87579 0.494052 0.0
C_ C_ 0.271393 0.87088 0.464927 0.0
C_ C_ 0.283204 0.837157 0.455274 0.0
C_ C_ 0.268419 0.808029 0.474012 0.0
C_ C_ 0.106738 0.791954 0.0225759 0.0
C_ C_ 0.0958549 0.821628 0.0426606 0.0
C_ C_ 0.0522644 0.842372 0.0372724 0.0
C_ C_ 0.0394459 0.867719 0.0596865 0.0
C_ C_ 0.0708099 0.872464 0.0854509 0.0
C_ C_ 0.115335 0.854539 0.0895046 0.0
C_ C_ 0.132302 0.832672 0.0657947 0.0
C_ C_ 0.148248 0.87607 0.107723 0.0
C_ C_ 0.081512 0.906132 0.0982958 0.0
C_ C_ 0.17112 0.993275 0.151027 0.0
C_ C_ 0.152842 0.968731 0.128371 0.0
C_ C_ 0.141982 0.932428 0.135596 0.0
C_ C_ 0.147944 0.921389 0.165663 0.0
C_ C_ 0.168914 0.946604 0.186992 0.0
C_ C_ 0.306048 0.788885 0.0819728 0.0
C_ C_ 0.334433 0.797109 0.109734 0.0
C_ C_ 0.0521007 0.78431 0.113566 0.0
C_ C_ 0.0811416 0.791297 0.140386 0.0
C_ C_ 0.0523586 0.803438 0.165689 0.0
C_ C_ 0.335298 0.817349 0.161084 0.0
C_ C_ 0.308848 0.814016 0.13302 0.0
C_ C_ 0.0761181 0.823607 0.188753 0.0
C_ C_ 0.331173 0.845885 0.180168 0.0
C_ C_ 0.0950288 0.902377 0.262641 0.0
C_ C_ 0.0810952 0.872836 0.244045 0.0
C_ C_ 0.0586106 0.878665 0.216294 0.0
C_ C_ 0.0478755 0.912347 0.207816 0.0
C_ C_ 0.0626276 0.941149 0.226006 0.0
N_ N_ 0.185194 0.72184 0.0681822 0.0
N_ N_ 0.121203 0.646116 0.130428 0.0
N_ N_ 0.0460637 0.603031 0.0549738 0.0
N_ N_ 0.0904193 0.692068 0.999711738 0.0
N_ N_ 0.14434 0.523723 0.321687 0.0
N_ N_ 0.193234 0.59297 0.392487 0.0
N_ N_ 0.286977 0.647585 0.305024 0.0
N_ N_ 0.246453 0.560867 0.248391 0.0
N_ N_ 0.143686 0.782557 0.432725 0.0
N_ N_ 0.217497 0.851631 0.367031 0.0
N_ N_ 0.289587 0.901649 0.447272 0.0
N_ N_ 0.246417 0.812969 0.50207 0.0
N_ N_ 0.180319 0.981283 0.179502 0.0
N_ N_ 0.127653 0.908297 0.111427 0.0
N_ N_ 0.0427106 0.848115 0.197501 0.0
N_ N_ 0.0898859 0.935399 0.252172 0.0
O_ O_ 0.135145 0.516597 0.218814 0.0
O_ O_ 0.0832699 0.537283 0.25235 0.0
O_ O_ 0.0337403 0.665206 0.139859 0.0
O_ O_ 0.20226 0.622281 0.135475 0.0
O_ O_ 0.267608 0.558693 0.177088 0.0
O_ O_ 0.312139 0.510918 0.183707 0.0
O_ O_ 0.287756 0.607117 0.060014 0.0
O_ O_ 0.127637 0.574405 0.0527185 0.0
O_ O_ 0.199959 0.735387 0.467481 0.0
O_ O_ 0.253265 0.716916 -0.0005509999999999682 0.0
O_ O_ 0.267097 0.563685 0.409177 0.0
O_ O_ 0.124277 0.630092 0.396788 0.0
O_ O_ 0.0705366 0.699743 0.42301 0.0
O_ O_ 0.023719 0.743553 0.431392 0.0
O_ O_ 0.0369048 0.632236 0.320468 0.0
O_ O_ 0.204476 0.669431 0.306669 0.0
O_ O_ 0.202503 0.986513 0.279907 0.0
O_ O_ 0.25237 0.965934 0.245417 0.0
O_ O_ 0.302263 0.835173 0.353054 0.0
O_ O_ 0.144181 0.888539 0.366562 0.0
O_ O_ 0.0682563 0.942255 0.322818 0.0
O_ O_ 0.0241822 0.98912 0.316013 0.0
O_ O_ 0.0480128 0.893584 0.4421 0.0
O_ O_ 0.206353 0.924901 0.441999 0.0
O_ O_ 0.134859 0.766214 0.0314062 0.0
O_ O_ 0.0767201 0.784726 0.498609 0.0
O_ O_ 0.0432661 0.925925 0.10696 0.0
O_ O_ 0.199935 0.872461 0.108138 0.0
O_ O_ 0.263079 0.802901 0.0763341 0.0
O_ O_ 0.319724 0.763522 0.0642492 0.0
O_ O_ 0.28523 0.855503 0.190964 0.0
O_ O_ 0.127511 0.829025 0.191807 0.0
Cd Cd 0.232274 0.517122 0.712359 0.0
Cd Cd 0.102399 0.737355 0.964358 0.0
Cd Cd 0.102743 0.987354 0.785465 0.0
Cd Cd 0.232992 0.766693 0.533663 0.0
H_ H_ 0.0172833 0.578455 0.723517 0.0
H_ H_ 0.333226 0.625274 0.687029 0.0
H_ H_ 0.166383 0.566626 0.679141 0.0
H_ H_ 0.181281 0.768806 0.597686 0.0
H_ H_ 0.158987 0.730824 0.639176 0.0
H_ H_ 0.164715 0.640642 0.583763 0.0
H_ H_ 0.203897 0.678648 0.545954 0.0
H_ H_ 0.0681187 0.517663 0.653879 0.0
H_ H_ 0.117728 0.533185 0.605916 0.0
H_ H_ 0.278741 0.579239 0.620185 0.0
H_ H_ 0.102165 0.652504 0.96611 0.0
H_ H_ 0.0832008 0.600224 0.498242 0.0
H_ H_ 0.0334006 0.674152 0.567274 0.0
H_ H_ 0.0601246 0.724614 0.534789 0.0
H_ H_ 0.315903 0.669485 0.974448 0.0
H_ H_ 0.998934 0.62182 0.939958 0.0
H_ H_ 0.15803 0.675862 0.934972 0.0
H_ H_ 0.146469 0.980501 0.851523 0.0
H_ H_ 0.216732 0.53259 0.878284 0.0
H_ H_ 0.153204 0.619623 0.82846 0.0
H_ H_ 0.116593 0.573616 0.793819 0.0
H_ H_ 0.262531 0.72845 0.905974 0.0
H_ H_ 0.208464 0.710436 0.859813 0.0
H_ H_ 0.0625596 0.675706 0.868917 0.0
H_ H_ 0.216705 0.597974 0.715719 0.0
H_ H_ 0.227159 0.649277 0.7532 0.0
H_ H_ 0.304122 0.579156 0.814261 0.0
H_ H_ 0.294098 0.531407 0.779072 0.0
H_ H_ 0.31373 0.92118 0.772979 0.0
H_ H_ 0.99883325 0.871143 0.809683 0.0
H_ H_ 0.166382 0.931989 0.820569 0.0
H_ H_ 0.156215 0.740908 0.898572 0.0
H_ H_ 0.19926 0.783304 0.862912 0.0
H_ H_ 0.179612 0.866451 0.928812 0.0
H_ H_ 0.133996 0.819872 0.962424 0.0
H_ H_ 0.264559 0.978353 0.845613 0.0
H_ H_ 0.210292 0.957611 0.890994 0.0
H_ H_ 0.0498549 0.913078 0.877143 0.0
H_ H_ 0.237256 0.851295 0.536438 0.0
H_ H_ 0.250498 0.897914 1.00266 0.0
H_ H_ 0.322069 0.828572 0.94114 0.0
H_ H_ 0.288692 0.776285 0.973776 0.0
H_ H_ 0.0146048 0.826874 0.526184 0.0
H_ H_ 0.332595 0.872934 0.564767 0.0
H_ H_ 0.161087 0.815388 0.571893 0.0
H_ H_ 0.200035 0.518885 0.639809 0.0
H_ H_ 0.12388 0.972026 0.616219 0.0
H_ H_ 0.156294 0.882974 0.675075 0.0
H_ H_ 0.197855 0.927111 0.707945 0.0
H_ H_ 0.0715761 0.780906 0.590219 0.0
H_ H_ 0.124084 0.788024 0.639943 0.0
H_ H_ 0.270454 0.823258 0.631509 0.0
H_ H_ 0.109728 0.903485 0.78315 0.0
H_ H_ 0.0988107 0.854516 0.751901 0.0
H_ H_ 0.0214133 0.922557 0.686815 0.0
H_ H_ 0.0552065 0.973286 0.717814 0.0
C_ C_ 0.103626 0.541553 0.725372 0.0
C_ C_ 0.0938065 0.570011 0.705024 0.0
C_ C_ 0.0454336 0.586421 0.705739 0.0
C_ C_ 0.0376206 0.615881 0.687629 0.0
C_ C_ 0.0747422 0.625084 0.664977 0.0
C_ C_ 0.117564 0.606114 0.660982 0.0
C_ C_ 0.130256 0.578673 0.681121 0.0
C_ C_ 0.155368 0.62965 0.647178 0.0
C_ C_ 0.0833763 0.657644 0.64952 0.0
C_ C_ 0.175917 0.74071 0.594581 0.0
C_ C_ 0.160437 0.718944 0.617975 0.0
C_ C_ 0.152391 0.682073 0.614806 0.0
C_ C_ 0.168468 0.668321 0.587013 0.0
C_ C_ 0.188097 0.690219 0.56471 0.0
C_ C_ 0.30597 0.541737 0.668581 0.0
C_ C_ 0.334069 0.547725 0.64099 0.0
C_ C_ 0.048478 0.53017 0.634501 0.0
C_ C_ 0.0763186 0.538234 0.608419 0.0
C_ C_ 0.0529648 0.55834 0.586614 0.0
C_ C_ 0.337408 0.569817 0.589543 0.0
C_ C_ 0.312943 0.567334 0.617249 0.0
C_ C_ 0.0792292 0.579996 0.564654 0.0
C_ C_ 0.333556 0.597573 0.569941 0.0
C_ C_ 0.0909139 0.65799 0.989206 0.0
C_ C_ 0.075197 0.627854 0.506123 0.0
C_ C_ 0.057557 0.634438 0.535584 0.0
C_ C_ 0.0480815 0.668279 0.544997 0.0
C_ C_ 0.0651006 0.697043 0.527068 0.0
C_ C_ 0.227357 0.710454 0.975163 0.0
C_ C_ 0.236139 0.678487 0.957866 0.0
C_ C_ 0.284653 0.661598 0.958881 0.0
C_ C_ 0.294674 0.634863 0.93777 0.0
C_ C_ 0.252538 0.621193 0.920112 0.0
C_ C_ 0.204913 0.635276 0.919595 0.0
C_ C_ 0.19616 0.665499 0.937034 0.0
C_ C_ 0.181499 0.628368 0.892546 0.0
C_ C_ 0.256306 0.604901 0.891864 0.0
C_ C_ 0.171541 0.519519 0.839985 0.0
C_ C_ 0.197287 0.543433 0.859828 0.0
C_ C_ 0.189614 0.580522 0.855822 0.0
C_ C_ 0.155682 0.590872 0.833294 0.0
C_ C_ 0.132068 0.565484 0.814701 0.0
C_ C_ 0.0297437 0.710675 0.91869 0.0
C_ C_ -0.001422999999999952 0.70159 0.891701 0.0
C_ C_ 0.280119 0.714297 0.887277 0.0
C_ C_ 0.25083 0.704794 0.861074 0.0
C_ C_ 0.278689 0.691494 0.836139 0.0
C_ C_ 0.99875 0.683609 0.839615 0.0
C_ C_ 0.0239356 0.685746 0.867204 0.0
C_ C_ 0.257375 0.673596 0.81189 0.0
C_ C_ -4.45884e-05 0.653381 0.82039 0.0
C_ C_ 0.237062 0.595375 0.737516 0.0
C_ C_ 0.2454 0.623129 0.756926 0.0
C_ C_ 0.276266 0.618808 0.783107 0.0
C_ C_ 0.288493 0.583626 0.792483 0.0
C_ C_ 0.277067 0.556477 0.773142 0.0
C_ C_ 0.225037 0.960638 0.770783 0.0
C_ C_ 0.236235 0.929831 0.791708 0.0
C_ C_ 0.283165 0.911299 0.789343 0.0
C_ C_ 0.290411 0.881574 0.807409 0.0
C_ C_ 0.249019 0.869265 0.826231 0.0
C_ C_ 0.20039 0.882811 0.825164 0.0
C_ C_ 0.197731 0.916839 0.812682 0.0
C_ C_ 0.178567 0.874062 0.852891 0.0
C_ C_ 0.25526 0.852311 0.853828 0.0
C_ C_ 0.159487 0.767503 0.903859 0.0
C_ C_ 0.183336 0.791844 0.883855 0.0
C_ C_ 0.189077 0.827549 0.890938 0.0
C_ C_ 0.173144 0.838901 0.920755 0.0
C_ C_ 0.148931 0.812831 0.940277 0.0
C_ C_ 0.0333993 0.961823 0.832769 0.0
C_ C_ 1.000175776 0.953641 0.859193 0.0
C_ C_ 0.281743 0.96506 0.862881 0.0
C_ C_ 0.252091 0.956313 0.889963 0.0
C_ C_ 0.279227 0.943238 0.914913 0.0
C_ C_ 0.995234 0.931456 0.910341 0.0
C_ C_ 0.0185492 0.931875 0.881811 0.0
C_ C_ 0.254269 0.919825 0.935652 0.0
C_ C_ 0.00191389 0.903742 0.93092 0.0
C_ C_ 0.243062 0.846854 0.512591 0.0
C_ C_ 0.252465 0.8715 0.994597 0.0
C_ C_ 0.279044 0.86561 0.966882 0.0
C_ C_ 0.29185 0.830947 0.958084 0.0
C_ C_ 0.274387 0.802859 0.976756 0.0
C_ C_ 0.107351 0.79114 0.520347 0.0
C_ C_ 0.0954088 0.820824 0.542825 0.0
C_ C_ 0.0481697 0.837996 0.538915 0.0
C_ C_ 0.0417594 0.870166 0.555673 0.0
C_ C_ 0.0842772 0.884447 0.574779 0.0
C_ C_ 0.128373 0.865623 0.579047 0.0
C_ C_ 0.133354 0.833109 0.564017 0.0
C_ C_ 0.144514 0.872443 0.608181 0.0
C_ C_ 0.07742 0.903767 0.601286 0.0
C_ C_ 0.161248 0.983684 0.656532 0.0
C_ C_ 0.137146 0.96027 0.636527 0.0
C_ C_ 0.136759 0.922777 0.642321 0.0
C_ C_ 0.158692 0.911392 0.669455 0.0
C_ C_ 0.18243 0.936141 0.68805 0.0
C_ C_ 0.305657 0.790453 0.581583 0.0
C_ C_ 0.333025 0.794068 0.611332 0.0
C_ C_ 0.0525451 0.788526 0.610808 0.0
C_ C_ 0.0830998 0.793733 0.63792 0.0
C_ C_ 0.056046 0.808241 0.663346 0.0
C_ C_ 0.334964 0.815587 0.662526 0.0
C_ C_ 0.308667 0.812572 0.634758 0.0
C_ C_ 0.0802534 0.830214 0.684711 0.0
C_ C_ 0.33007 0.844591 0.682722 0.0
C_ C_ 0.0916413 0.907187 0.761201 0.0
C_ C_ 0.0836952 0.878814 0.743038 0.0
C_ C_ 0.0581533 0.883317 0.714814 0.0
C_ C_ 0.0405214 0.917622 0.708229 0.0
C_ C_ 0.0636441 0.946675 0.724105 0.0
N_ N_ 0.191348 0.727186 0.568231 0.0
N_ N_ 0.134567 0.660577 0.639402 0.0
N_ N_ 0.0457833 0.604418 0.555924 0.0
N_ N_ 0.0807123 0.691278 0.49796 0.0
N_ N_ 0.142219 0.531567 0.817402 0.0
N_ N_ 0.212027 0.607674 0.875406 0.0
N_ N_ 0.291872 0.649964 0.801452 0.0
N_ N_ 0.24934 0.561836 0.74632 0.0
N_ N_ 0.14212 0.778459 0.931368 0.0
N_ N_ 0.2104 0.853999 0.869944 0.0
N_ N_ 0.288267 0.896173 0.945967 0.0
N_ N_ 0.239689 0.808946 -0.000343173 0.0
N_ N_ 0.1824 0.97121 0.682245 0.0
N_ N_ 0.115589 0.897439 0.621282 0.0
N_ N_ 0.044662 0.852536 0.696303 0.0
N_ N_ 0.0856561 0.940718 0.751157 0.0
O_ O_ 0.134035 0.515934 0.71788 0.0
O_ O_ 0.0775607 0.537362 0.749358 0.0
O_ O_ 0.0572095 0.685891 0.656917 0.0
O_ O_ 0.2046 0.630055 0.655555 0.0
O_ O_ 0.262268 0.555965 0.673534 0.0
O_ O_ 0.317316 0.517215 0.686636 0.0
O_ O_ 0.289061 0.613127 0.56397 0.0
O_ O_ 0.130571 0.582677 0.560935 0.0
O_ O_ 0.203306 0.734742 0.963645 0.0
O_ O_ 0.257245 0.718747 0.501159 0.0
O_ O_ 0.303429 0.60169 0.878635 0.0
O_ O_ 0.130225 0.63137 0.887606 0.0
O_ O_ 0.0728915 0.696883 0.924171 0.0
O_ O_ 0.0192078 0.737208 0.934421 0.0
O_ O_ 0.0454956 0.644019 0.809824 0.0
O_ O_ 0.205562 0.668432 0.808192 0.0
O_ O_ 0.19956 0.986377 0.780675 0.0
O_ O_ 0.249528 0.963807 0.746174 0.0
O_ O_ 0.299142 0.839139 0.863934 0.0
O_ O_ 0.12682 0.874231 0.858961 0.0
O_ O_ 0.0714563 0.942589 0.825283 0.0
O_ O_ 0.0275135 0.989581 0.817092 0.0
O_ O_ 0.035192 0.879207 0.926882 0.0
O_ O_ 0.218728 0.930306 0.952982 0.0
O_ O_ 0.134753 0.766268 0.528711 0.0
O_ O_ 0.0787494 0.787375 -0.0008380000000000054 0.0
O_ O_ 0.0335814 0.918179 0.607959 0.0
O_ O_ 0.196371 0.869783 0.615681 0.0
O_ O_ 0.263894 0.805995 0.57627 0.0
O_ O_ 0.318997 0.767845 0.561703 0.0
O_ O_ 0.295763 0.869375 0.678796 0.0
O_ O_ 0.123428 0.82274 0.698763 0.0
Cd Cd 0.565078 0.0120421 0.216379 0.0
Cd Cd 0.439104 0.235548 0.464218 0.0
Cd Cd 0.437267 0.488615 0.285427 0.0
Cd Cd 0.564618 0.263022 0.0372149 0.0
H_ H_ 0.364568 0.0923333 0.23802 0.0
H_ H_ 0.669835 0.13073 0.191668 0.0
H_ H_ 0.497491 0.0659147 0.182539 0.0
H_ H_ 0.527391 0.265773 0.108566 0.0
H_ H_ 0.487179 0.222346 0.145909 0.0
H_ H_ 0.476972 0.141759 0.0764352 0.0
H_ H_ 0.513051 0.186535 0.0414604 0.0
H_ H_ 0.397785 0.01267 0.147029 0.0
H_ H_ 0.448066 0.033257 0.101262 0.0
H_ H_ 0.6002 0.0671643 0.118337 0.0
H_ H_ 0.457282 0.150506 0.471298 0.0
H_ H_ 0.416591 0.0983979 0.996802 0.0
H_ H_ 0.370598 0.170667 0.0650645 0.0
H_ H_ 0.387564 0.220721 0.0306212 0.0
H_ H_ 0.646842 0.169402 0.477259 0.0
H_ H_ 0.273698 0.0902645 0.475354 0.0
H_ H_ 0.50592 0.191728 0.428762 0.0
H_ H_ 0.502196 0.491841 0.348129 0.0
H_ H_ 0.538454 0.037567 0.386667 0.0
H_ H_ 0.504818 0.12155 0.324024 0.0
H_ H_ 0.472343 0.0738207 0.286238 0.0
H_ H_ 0.605208 0.243586 0.398124 0.0
H_ H_ 0.547342 0.217717 0.355897 0.0
H_ H_ 0.380201 0.155701 0.388079 0.0
H_ H_ 0.551046 0.0984477 0.218717 0.0
H_ H_ 0.569293 0.148728 0.24976 0.0
H_ H_ 0.64147 0.081455 0.314964 0.0
H_ H_ 0.625846 0.0296775 0.280084 0.0
H_ H_ 0.651479 0.425032 0.278063 0.0
H_ H_ 0.331229 0.369381 0.304668 0.0
H_ H_ 0.493027 0.425243 0.313368 0.0
H_ H_ 0.45513 0.241454 0.391257 0.0
H_ H_ 0.501544 0.278636 0.353262 0.0
H_ H_ 0.522254 0.358631 0.421157 0.0
H_ H_ 0.499541 0.312944 0.460262 0.0
H_ H_ 0.602633 0.483359 0.346229 0.0
H_ H_ 0.548597 0.469454 0.393377 0.0
H_ H_ 0.407144 0.422322 0.375898 0.0
H_ H_ 0.564051 0.349483 0.036052 0.0
H_ H_ 0.567838 0.398319 0.50124 0.0
H_ H_ 0.651918 0.331689 0.439883 0.0
H_ H_ 0.633823 0.282064 0.475968 0.0
H_ H_ 0.350036 0.333572 0.0211549 0.0
H_ H_ 0.666836 0.377879 0.0611668 0.0
H_ H_ 0.501026 0.320882 0.064999 0.0
H_ H_ 0.49512 0.0087869 0.153831 0.0
H_ H_ 0.457783 0.463843 0.115793 0.0
H_ H_ 0.508773 0.3806 0.172355 0.0
H_ H_ 0.549917 0.426116 0.207726 0.0
H_ H_ 0.410045 0.272189 0.0985213 0.0
H_ H_ 0.449993 0.278059 0.148746 0.0
H_ H_ 0.612192 0.327367 0.129053 0.0
H_ H_ 0.425749 0.401563 0.287567 0.0
H_ H_ 0.419382 0.350821 0.255299 0.0
H_ H_ 0.371493 0.41776 0.1829 0.0
H_ H_ 0.384117 0.471284 0.218698 0.0
C_ C_ 0.436865 0.0406595 0.229626 0.0
C_ C_ 0.429972 0.0738576 0.211421 0.0
C_ C_ 0.388915 0.0960606 0.21726 0.0
C_ C_ 0.375786 0.122944 0.19725 0.0
C_ C_ 0.401115 0.125412 0.169174 0.0
C_ C_ 0.44188 0.102637 0.162582 0.0
C_ C_ 0.46005 0.0797526 0.184827 0.0
C_ C_ 0.473727 0.121211 0.141137 0.0
C_ C_ 0.409152 0.1562 0.151353 0.0
C_ C_ 0.518037 0.238296 0.103456 0.0
C_ C_ 0.495668 0.213739 0.124503 0.0
C_ C_ 0.476812 0.17972 0.115471 0.0
C_ C_ 0.485017 0.1691 0.0852617 0.0
C_ C_ 0.510532 0.193532 0.06529 0.0
C_ C_ 0.635652 0.035841 0.167478 0.0
C_ C_ 0.664503 0.0418136 0.139322 0.0
C_ C_ 0.381131 0.028994 0.131021 0.0
C_ C_ 0.407059 0.0378708 0.104069 0.0
C_ C_ 0.379261 0.0546547 0.0820091 0.0
C_ C_ 0.668215 0.0663671 0.0894126 0.0
C_ C_ 0.641354 0.0603212 0.11622 0.0
C_ C_ 0.403996 0.0748205 0.0585745 0.0
C_ C_ 0.666334 0.0964769 0.0705941 0.0
C_ C_ 0.438335 0.155308 0.492118 0.0
C_ C_ 0.410274 0.124922 0.00408203 0.0
C_ C_ 0.387132 0.131195 0.0320699 0.0
C_ C_ 0.377568 0.165996 0.0409054 0.0
C_ C_ 0.396442 0.193619 0.0232192 0.0
C_ C_ 0.566285 0.213955 0.475775 0.0
C_ C_ 0.575044 0.183238 0.455451 0.0
C_ C_ 0.61796 0.162222 0.460285 0.0
C_ C_ 0.62373 0.131655 0.442277 0.0
C_ C_ 0.581591 0.118714 0.42309 0.0
C_ C_ 0.539946 0.140515 0.418065 0.0
C_ C_ 0.538112 0.174304 0.43284 0.0
C_ C_ 0.525394 0.135404 0.38855 0.0
C_ C_ 0.590623 0.101745 0.395315 0.0
C_ C_ 0.498046 0.0225366 0.344778 0.0
C_ C_ 0.524914 0.0469572 0.364098 0.0
C_ C_ 0.528184 0.0838557 0.356352 0.0
C_ C_ 0.502555 0.093777 0.329724 0.0
C_ C_ 0.480913 0.0671302 0.30971 0.0
C_ C_ 0.362662 0.209761 0.423426 0.0
C_ C_ 0.329547 0.197905 0.397539 0.0
C_ C_ 0.618745 0.221557 0.384266 0.0
C_ C_ 0.588156 0.211982 0.358388 0.0
C_ C_ 0.614017 0.194643 0.334939 0.0
C_ C_ 0.313046 0.154215 0.358177 0.0
C_ C_ 0.346528 0.169598 0.380225 0.0
C_ C_ 0.588907 0.173208 0.31352 0.0
C_ C_ 0.331059 0.140107 0.331052 0.0
C_ C_ 0.564761 0.0937687 0.24061 0.0
C_ C_ 0.576821 0.122835 0.257926 0.0
C_ C_ 0.60463 0.118296 0.284789 0.0
C_ C_ 0.615013 0.0846592 0.294757 0.0
C_ C_ 0.607237 0.0562929 0.275556 0.0
C_ C_ 0.560763 0.457954 0.272533 0.0
C_ C_ 0.568438 0.424317 0.289568 0.0
C_ C_ 0.617446 0.409241 0.288633 0.0
C_ C_ 0.626341 0.379753 0.306637 0.0
C_ C_ 0.583212 0.36152 0.320427 0.0
C_ C_ 0.533156 0.375355 0.319896 0.0
C_ C_ 0.527117 0.408754 0.307398 0.0
C_ C_ 0.510823 0.366525 0.346808 0.0
C_ C_ 0.586394 0.342381 0.347427 0.0
C_ C_ 0.483862 0.261973 0.398819 0.0
C_ C_ 0.504902 0.2851 0.377036 0.0
C_ C_ 0.522553 0.320341 0.385408 0.0
C_ C_ 0.516636 0.331486 0.415154 0.0
C_ C_ 0.502796 0.305092 0.437181 0.0
C_ C_ 0.364131 0.463431 0.332309 0.0
C_ C_ 0.344001 0.457173 0.362742 0.0
C_ C_ 0.618769 0.469619 0.364828 0.0
C_ C_ 0.589016 0.463188 0.391043 0.0
C_ C_ 0.614736 0.445416 0.415304 0.0
C_ C_ 0.350827 0.429108 0.412623 0.0
C_ C_ 0.369782 0.43407 0.382621 0.0
C_ C_ 0.589979 0.425098 0.438384 0.0
C_ C_ 0.354168 0.39816 0.429523 0.0
C_ C_ 0.580927 0.344515 0.0147136 0.0
C_ C_ 0.578323 0.37242 0.492814 0.0
C_ C_ 0.607239 0.369858 0.466013 0.0
C_ C_ 0.62795 0.335498 0.45936 0.0
C_ C_ 0.616549 0.307181 0.478833 0.0
C_ C_ 0.44406 0.293637 0.0202427 0.0
C_ C_ 0.42963 0.324654 0.0397981 0.0
C_ C_ 0.38132 0.341541 0.0374668 0.0
C_ C_ 0.369473 0.36903 0.0585564 0.0
C_ C_ 0.410441 0.381612 0.079508 0.0
C_ C_ 0.458489 0.365869 0.0789549 0.0
C_ C_ 0.464247 0.334483 0.0634704 0.0
C_ C_ 0.480944 0.372516 0.10709 0.0
C_ C_ 0.40506 0.39561 0.108285 0.0
C_ C_ 0.496434 0.480885 0.158931 0.0
C_ C_ 0.471716 0.456073 0.138181 0.0
C_ C_ 0.472155 0.419697 0.144899 0.0
C_ C_ 0.503282 0.40904 0.168727 0.0
C_ C_ 0.523088 0.434413 0.189578 0.0
C_ C_ 0.637382 0.284815 0.0824239 0.0
C_ C_ 0.667606 0.29444 0.11008 0.0
C_ C_ 0.388711 0.28419 0.116545 0.0
C_ C_ 0.411074 0.287122 0.145131 0.0
C_ C_ 0.3857 0.303911 0.168328 0.0
C_ C_ 0.670217 0.317785 0.161327 0.0
C_ C_ 0.643764 0.313045 0.13403 0.0
C_ C_ 0.408844 0.325686 0.190435 0.0
C_ C_ 0.66551 0.34614 0.180118 0.0
C_ C_ 0.41979 0.405543 0.263745 0.0
C_ C_ 0.41096 0.376665 0.246223 0.0
C_ C_ 0.391523 0.380559 0.216656 0.0
C_ C_ 0.380568 0.414019 0.206445 0.0
C_ C_ 0.394099 0.443922 0.225014 0.0
N_ N_ 0.524677 0.227929 0.0741365 0.0
N_ N_ 0.455914 0.154196 0.136943 0.0
N_ N_ 0.371272 0.0996117 0.0500219 0.0
N_ N_ 0.413707 0.188339 0.995154 0.0
N_ N_ 0.478789 0.0320614 0.317733 0.0
N_ N_ 0.553228 0.111243 0.375086 0.0
N_ N_ 0.621019 0.148662 0.303158 0.0
N_ N_ 0.576339 0.0604659 0.250347 0.0
N_ N_ 0.482913 0.272232 0.428932 0.0
N_ N_ 0.542246 0.345825 0.363371 0.0
N_ N_ 0.623482 0.399764 0.447924 0.0
N_ N_ 0.58215 0.310092 0.501555 0.0
N_ N_ 0.522597 0.469243 0.183838 0.0
N_ N_ 0.449925 0.392793 0.124118 0.0
N_ N_ 0.374768 0.349435 0.199449 0.0
N_ N_ 0.416913 0.438743 0.252774 0.0
O_ O_ 0.464538 0.0176099 0.221134 0.0
O_ O_ 0.406731 0.0351674 0.251623 0.0
O_ O_ 0.391137 0.187551 0.160761 0.0
O_ O_ 0.52637 0.1151 0.137934 0.0
O_ O_ 0.589355 0.0460631 0.171816 0.0
O_ O_ 0.654846 0.0167797 0.188275 0.0
O_ O_ 0.619209 0.105753 0.061691 0.0
O_ O_ 0.454269 0.0779601 0.0551271 0.0
O_ O_ 0.535385 0.237963 0.467531 0.0
O_ O_ 0.582282 0.212414 0.00214218 0.0
O_ O_ 0.638938 0.0929287 0.387458 0.0
O_ O_ 0.475727 0.140711 0.379149 0.0
O_ O_ 0.400269 0.191745 0.431452 0.0
O_ O_ 0.36045 0.240966 0.434955 0.0
O_ O_ 0.381406 0.137295 0.326123 0.0
O_ O_ 0.547036 0.183383 0.298465 0.0
O_ O_ 0.535283 0.481988 0.283739 0.0
O_ O_ 0.58938 0.46519 0.248809 0.0
O_ O_ 0.632239 0.338634 0.36144 0.0
O_ O_ 0.458952 0.364121 0.349581 0.0
O_ O_ 0.399659 0.445466 0.321919 0.0
O_ O_ 0.359896 0.491369 0.319747 0.0
O_ O_ 0.379729 0.370272 0.420395 0.0
O_ O_ 0.537779 0.420347 0.441848 0.0
O_ O_ 0.468139 0.266867 0.0323297 0.0
O_ O_ 0.41866 0.288403 0.493217 0.0
O_ O_ 0.370802 0.42053 0.115195 0.0
O_ O_ 0.52828 0.363292 0.115565 0.0
O_ O_ 0.59626 0.300421 0.0761368 0.0
O_ O_ 0.648692 0.256917 0.0668066 0.0
O_ O_ 0.61972 0.352407 0.193274 0.0
O_ O_ 0.460938 0.330921 0.194468 0.0
Cd Cd 0.561238 0.0126869 0.71522 0.0
Cd Cd 0.432099 0.236415 0.963134 0.0
Cd Cd 0.436624 0.48822 0.786922 0.0
Cd Cd 0.562463 0.262202 0.536925 0.0
H_ H_ 0.409448 0.105939 0.753753 0.0
H_ H_ 0.671518 0.132166 0.693407 0.0
H_ H_ 0.462196 0.0571772 0.673639 0.0
H_ H_ 0.455959 0.24665 0.581563 0.0
H_ H_ 0.434765 0.210524 0.626616 0.0
H_ H_ 0.569409 0.14821 0.608327 0.0
H_ H_ 0.597852 0.191813 0.56921 0.0
H_ H_ 0.401106 0.0046559 0.644764 0.0
H_ H_ 0.448283 0.0232921 0.595818 0.0
H_ H_ 0.600388 0.0707458 0.617545 0.0
H_ H_ 0.433771 0.148811 0.962712 0.0
H_ H_ 0.423718 0.0989629 0.50381 0.0
H_ H_ 0.375201 0.176798 0.566765 0.0
H_ H_ 0.385362 0.221201 0.528706 0.0
H_ H_ 0.645271 0.168555 0.976672 0.0
H_ H_ 0.303242 0.100549 0.957944 0.0
H_ H_ 0.500413 0.182283 0.928443 0.0
H_ H_ 0.498986 0.491495 0.848007 0.0
H_ H_ 0.549279 0.0319479 0.880606 0.0
H_ H_ 0.49855 0.118729 0.824988 0.0
H_ H_ 0.460355 0.0738935 0.789075 0.0
H_ H_ 0.597108 0.232616 0.903451 0.0
H_ H_ 0.544499 0.205567 0.860822 0.0
H_ H_ 0.415246 0.176493 0.868354 0.0
H_ H_ 0.550354 0.0949492 0.71563 0.0
H_ H_ 0.565987 0.148265 0.752248 0.0
H_ H_ 0.646213 0.0786455 0.811644 0.0
H_ H_ 0.620735 0.0285846 0.778236 0.0
H_ H_ 0.647651 0.419576 0.77365 0.0
H_ H_ 0.233975 0.335923 0.763494 0.0
H_ H_ 0.485395 0.421391 0.80796 0.0
H_ H_ 0.483372 0.236956 0.896679 0.0
H_ H_ 0.532977 0.278171 0.861491 0.0
H_ H_ 0.515416 0.364691 0.921935 0.0
H_ H_ 0.468112 0.320613 0.958884 0.0
H_ H_ 0.598951 0.478966 0.844458 0.0
H_ H_ 0.545125 0.462497 0.890585 0.0
H_ H_ 0.390338 0.412339 0.876485 0.0
H_ H_ 0.560045 0.346941 0.534471 0.0
H_ H_ 0.594833 0.401623 1.00380216 0.0
H_ H_ 0.627851 0.328586 0.935415 0.0
H_ H_ 0.600678 0.277754 0.968879 0.0
H_ H_ 0.447273 0.359637 0.489865 0.0
H_ H_ 0.673635 0.383311 0.555204 0.0
H_ H_ 0.454206 0.307242 0.576905 0.0
H_ H_ 0.497247 0.00845657 0.652663 0.0
H_ H_ 0.476403 0.467658 0.610142 0.0
H_ H_ 0.582173 0.393926 0.64346 0.0
H_ H_ 0.598883 0.431496 0.688543 0.0
H_ H_ 0.358074 0.240632 0.622161 0.0
H_ H_ 0.406824 0.260195 0.66927 0.0
H_ H_ 0.608507 0.327107 0.629064 0.0
H_ H_ 0.344114 0.433515 0.771272 0.0
H_ H_ 0.326857 0.378149 0.741087 0.0
H_ H_ 0.468167 0.404868 0.690426 0.0
H_ H_ 0.494652 0.452235 0.729337 0.0
C_ C_ 0.441499 0.0418315 0.732106 0.0
C_ C_ 0.434573 0.0752234 0.716119 0.0
C_ C_ 0.41993 0.106979 0.731688 0.0
C_ C_ 0.426789 0.141061 0.717148 0.0
C_ C_ 0.440923 0.141226 0.687907 0.0
C_ C_ 0.442126 0.110617 0.670601 0.0
C_ C_ 0.443175 0.0783736 0.685223 0.0
C_ C_ 0.470147 0.120593 0.645026 0.0
C_ C_ 0.471914 0.168449 0.673013 0.0
C_ C_ 0.485161 0.227722 0.589023 0.0
C_ C_ 0.470491 0.206417 0.613434 0.0
C_ C_ 0.502534 0.178165 0.621057 0.0
C_ C_ 0.546891 0.172701 0.604586 0.0
C_ C_ 0.562326 0.19538 0.581501 0.0
C_ C_ 0.632759 0.0363301 0.666951 0.0
C_ C_ 0.663417 0.0434917 0.63894 0.0
C_ C_ 0.379392 0.0200652 0.626624 0.0
C_ C_ 0.406597 0.0293625 0.59961 0.0
C_ C_ 0.383808 0.0529318 0.580327 0.0
C_ C_ 0.668195 0.0653706 0.588006 0.0
C_ C_ 0.64003 0.061577 0.614284 0.0
C_ C_ 0.411185 0.0768265 0.563423 0.0
C_ C_ 0.664413 0.0928357 0.566737 0.0
C_ C_ 0.425172 0.154238 0.986292 0.0
C_ C_ 0.42448 0.126646 0.511219 0.0
C_ C_ 0.396974 0.134378 0.538226 0.0
C_ C_ 0.389623 0.168678 0.546163 0.0
C_ C_ 0.402367 0.196299 0.525987 0.0
C_ C_ 0.553405 0.205487 0.979304 0.0
C_ C_ 0.565636 0.174679 0.959375 0.0
C_ C_ 0.614767 0.157747 0.961516 0.0
C_ C_ 0.625791 0.130116 0.941615 0.0
C_ C_ 0.585733 0.116021 0.923793 0.0
C_ C_ 0.539197 0.13449 0.920326 0.0
C_ C_ 0.531931 0.165161 0.93498 0.0
C_ C_ 0.51884 0.125963 0.892718 0.0
C_ C_ 0.593544 0.0987586 0.896025 0.0
C_ C_ 0.505812 0.018774 0.841378 0.0
C_ C_ 0.532173 0.0416272 0.860801 0.0
C_ C_ 0.532411 0.0785357 0.855018 0.0
C_ C_ 0.504824 0.0911064 0.830079 0.0
C_ C_ 0.483189 0.0658245 0.809275 0.0
C_ C_ 0.370685 0.208435 0.915488 0.0
C_ C_ 0.344589 0.198258 0.886738 0.0
C_ C_ 0.614936 0.214564 0.887263 0.0
C_ C_ 0.586887 0.204501 0.862244 0.0
C_ C_ 0.612021 0.192208 0.836174 0.0
C_ C_ 0.349418 0.177365 0.835781 0.0
C_ C_ 0.372655 0.181743 0.863792 0.0
C_ C_ 0.586782 0.170692 0.814714 0.0
C_ C_ 0.3561 0.149292 0.815486 0.0
C_ C_ 0.561348 0.0920478 0.74014 0.0
C_ C_ 0.576927 0.122171 0.758193 0.0
C_ C_ 0.607276 0.117443 0.784604 0.0
C_ C_ 0.616785 0.0825034 0.793617 0.0
C_ C_ 0.602498 0.054384 0.775491 0.0
C_ C_ 0.560123 0.459003 0.774912 0.0
C_ C_ 0.567227 0.427233 0.792402 0.0
C_ C_ 0.615519 0.4082 0.786759 0.0
C_ C_ 0.624835 0.378898 0.805397 0.0
C_ C_ 0.581506 0.362822 0.821664 0.0
C_ C_ 0.532443 0.378441 0.823208 0.0
C_ C_ 0.524578 0.409718 0.807021 0.0
C_ C_ 0.511133 0.370728 0.851333 0.0
C_ C_ 0.586154 0.344915 0.848196 0.0
C_ C_ 0.489444 0.265132 0.902365 0.0
C_ C_ 0.515366 0.288047 0.882302 0.0
C_ C_ 0.525079 0.323776 0.889474 0.0
C_ C_ 0.50973 0.336925 0.916744 0.0
C_ C_ 0.484693 0.311325 0.938045 0.0
C_ C_ 0.36847 0.462044 0.832983 0.0
C_ C_ 0.33351 0.448599 0.857618 0.0
C_ C_ 0.617845 0.467498 0.863661 0.0
C_ C_ 0.587498 0.458257 0.889758 0.0
C_ C_ 0.61196 0.444108 0.914496 0.0
C_ C_ 0.331142 0.42668 0.908125 0.0
C_ C_ 0.35419 0.426357 0.880478 0.0
C_ C_ 0.587041 0.421363 0.935238 0.0
C_ C_ 0.330737 0.399408 0.929437 0.0
C_ C_ 0.571581 0.34375 0.512093 0.0
C_ C_ 0.594518 0.373999 0.995197 0.0
C_ C_ 0.610787 0.36714 0.965961 0.0
C_ C_ 0.617243 0.333294 0.957804 0.0
C_ C_ 0.598515 0.304828 0.975731 0.0
C_ C_ 0.446479 0.293692 0.516337 0.0
C_ C_ 0.448028 0.328092 0.531806 0.0
C_ C_ 0.450544 0.359619 0.514112 0.0
C_ C_ 0.455394 0.392948 0.528394 0.0
C_ C_ 0.462495 0.393621 0.559289 0.0
C_ C_ 0.457823 0.363256 0.576896 0.0
C_ C_ 0.455356 0.330053 0.563627 0.0
C_ C_ 0.484307 0.370689 0.603654 0.0
C_ C_ 0.494494 0.418154 0.574805 0.0
C_ C_ 0.513033 0.480722 0.652807 0.0
C_ C_ 0.501591 0.459301 0.628325 0.0
C_ C_ 0.520727 0.426258 0.626295 0.0
C_ C_ 0.556936 0.415748 0.648288 0.0
C_ C_ 0.565998 0.437395 0.673601 0.0
C_ C_ 0.635193 0.286307 0.582385 0.0
C_ C_ 0.666208 0.296193 0.609309 0.0
C_ C_ 0.357569 0.2685 0.630254 0.0
C_ C_ 0.391239 0.280226 0.653571 0.0
C_ C_ 0.399966 0.315987 0.660469 0.0
C_ C_ 0.668994 0.316703 0.661104 0.0
C_ C_ 0.644804 0.314645 0.633351 0.0
C_ C_ 0.401614 0.32782 0.689846 0.0
C_ C_ 0.665814 0.345362 0.681154 0.0
C_ C_ 0.371652 0.426259 0.753445 0.0
C_ C_ 0.360898 0.396166 0.735479 0.0
C_ C_ 0.396356 0.387109 0.71366 0.0
C_ C_ 0.444017 0.408677 0.70987 0.0
C_ C_ 0.455389 0.43853 0.728657 0.0
N_ N_ 0.530601 0.220823 0.572498 0.0
N_ N_ 0.489906 0.155319 0.647541 0.0
N_ N_ 0.383664 0.105276 0.559245 0.0
N_ N_ 0.430213 0.19033 0.500296 0.0
N_ N_ 0.484406 0.0302926 0.815497 0.0
N_ N_ 0.551896 0.103727 0.877882 0.0
N_ N_ 0.621379 0.147664 0.803643 0.0
N_ N_ 0.572176 0.0586634 0.750592 0.0
N_ N_ 0.477651 0.277256 0.930012 0.0
N_ N_ 0.543202 0.348854 0.865892 0.0
N_ N_ 0.62123 0.397235 0.945622 0.0
N_ N_ 0.58484 0.311373 0.00502435 0.0
N_ N_ 0.539378 0.468654 0.677008 0.0
N_ N_ 0.509191 0.404068 0.60155 0.0
N_ N_ 0.379458 0.359916 0.692565 0.0
N_ N_ 0.419929 0.445181 0.750284 0.0
O_ O_ 0.465513 0.0165225 0.719526 0.0
O_ O_ 0.411384 0.0335384 0.754231 0.0
O_ O_ 0.498864 0.194845 0.687955 0.0
O_ O_ 0.497409 0.0980295 0.629379 0.0
O_ O_ 0.589737 0.0518624 0.671977 0.0
O_ O_ 0.644976 0.0131768 0.68647 0.0
O_ O_ 0.628696 0.115445 0.57026 0.0
O_ O_ 0.464343 0.0785753 0.563072 0.0
O_ O_ 0.527907 0.231519 0.968696 0.0
O_ O_ 0.583937 0.214888 0.50242 0.0
O_ O_ 0.642505 0.0972216 0.885048 0.0
O_ O_ 0.468108 0.127397 0.88603 0.0
O_ O_ 0.412745 0.194885 0.923259 0.0
O_ O_ 0.356629 0.235119 0.930861 0.0
O_ O_ 0.402868 0.139654 0.807755 0.0
O_ O_ 0.552452 0.183613 0.797153 0.0
O_ O_ 0.532831 0.483774 0.785649 0.0
O_ O_ 0.589106 0.465515 0.751057 0.0
O_ O_ 0.632354 0.333839 0.860003 0.0
O_ O_ 0.458558 0.36906 0.854859 0.0
O_ O_ 0.409992 0.446433 0.826202 0.0
O_ O_ 0.357689 0.488065 0.816073 0.0
O_ O_ 0.376032 0.391355 0.942652 0.0
O_ O_ 0.548637 0.431946 0.952115 0.0
O_ O_ 0.466511 0.267068 0.528156 0.0
O_ O_ 0.414224 0.284816 0.998406 0.0
O_ O_ 0.529318 0.440152 0.558309 0.0
O_ O_ 0.50297 0.345383 0.622736 0.0
O_ O_ 0.598224 0.305133 0.573545 0.0
O_ O_ 0.643675 0.257801 0.567762 0.0
O_ O_ 0.618915 0.353384 0.692976 0.0
O_ O_ 0.414822 0.308304 0.713074 0.0
Cd Cd 0.561836 0.511957 0.214349 0.0
Cd Cd 0.436588 0.738369 0.464643 0.0
Cd Cd 0.436712 0.988634 0.285483 0.0
Cd Cd 0.563465 0.761661 0.0353317 0.0
H_ H_ 0.353693 0.580993 0.227508 0.0
H_ H_ 0.674263 0.634768 0.195857 0.0
H_ H_ 0.499052 0.564664 0.179348 0.0
H_ H_ 0.495111 0.758641 0.0961205 0.0
H_ H_ 0.451868 0.715005 0.131585 0.0
H_ H_ 0.498118 0.630422 0.0737408 0.0
H_ H_ 0.537017 0.675319 0.0383423 0.0
H_ H_ 0.405147 0.520147 0.155427 0.0
H_ H_ 0.453014 0.534087 0.107274 0.0
H_ H_ 0.60366 0.574168 0.118714 0.0
H_ H_ 0.446068 0.653245 0.466457 0.0
H_ H_ 0.423654 0.601086 0.999031 0.0
H_ H_ 0.364605 0.672183 0.0649182 0.0
H_ H_ 0.382582 0.722024 0.0314405 0.0
H_ H_ 0.652129 0.674421 0.471405 0.0
H_ H_ 0.303831 0.604049 0.453628 0.0
H_ H_ 0.506675 0.687086 0.42673 0.0
H_ H_ 0.490671 0.996089 0.35127 0.0
H_ H_ 0.544817 0.534856 0.381981 0.0
H_ H_ 0.500476 0.620428 0.323867 0.0
H_ H_ 0.464028 0.574587 0.288497 0.0
H_ H_ 0.600654 0.735559 0.402018 0.0
H_ H_ 0.546452 0.717173 0.357654 0.0
H_ H_ 0.3962 0.676002 0.368656 0.0
H_ H_ 0.555135 0.596565 0.216872 0.0
H_ H_ 0.570642 0.648489 0.250618 0.0
H_ H_ 0.63623 0.578844 0.315293 0.0
H_ H_ 0.610996 0.527927 0.283047 0.0
H_ H_ 0.646287 0.9177 0.271952 0.0
H_ H_ 0.304584 0.853927 0.28531 0.0
H_ H_ 0.50027 0.932895 0.318641 0.0
H_ H_ 0.492182 0.742827 0.400514 0.0
H_ H_ 0.541385 0.785581 0.366924 0.0
H_ H_ 0.504966 0.869902 0.426735 0.0
H_ H_ 0.459655 0.824756 0.460275 0.0
H_ H_ 0.59456 0.974679 0.342876 0.0
H_ H_ 0.544824 0.958896 0.389162 0.0
H_ H_ 0.392711 0.921835 0.379754 0.0
H_ H_ 0.549637 0.846386 0.0320753 0.0
H_ H_ 0.576082 0.899058 0.500938 0.0
H_ H_ 0.641446 0.829224 0.436099 0.0
H_ H_ 0.616679 0.777993 0.468944 0.0
H_ H_ 0.350509 0.828375 0.025034 0.0
H_ H_ 0.665754 0.872108 0.0653135 0.0
H_ H_ 0.498892 0.815178 0.0702528 0.0
H_ H_ 0.500395 0.508413 0.152338 0.0
H_ H_ 0.455477 0.964791 0.117439 0.0
H_ H_ 0.499181 0.879969 0.175644 0.0
H_ H_ 0.53885 0.925225 0.2109 0.0
H_ H_ 0.402979 0.77026 0.0952161 0.0
H_ H_ 0.455113 0.786785 0.141306 0.0
H_ H_ 0.604364 0.824876 0.131063 0.0
H_ H_ 0.445366 0.903364 0.28328 0.0
H_ H_ 0.423131 0.850974 0.251095 0.0
H_ H_ 0.360554 0.920902 0.185192 0.0
H_ H_ 0.381605 0.971767 0.219611 0.0
C_ C_ 0.43868 0.539998 0.227052 0.0
C_ C_ 0.42932 0.570771 0.207483 0.0
C_ C_ 0.381853 0.588822 0.210019 0.0
C_ C_ 0.372918 0.617352 0.190542 0.0
C_ C_ 0.414437 0.63051 0.171853 0.0
C_ C_ 0.4608 0.613273 0.169669 0.0
C_ C_ 0.466734 0.581574 0.185219 0.0
C_ C_ 0.481436 0.620719 0.141473 0.0
C_ C_ 0.408884 0.648598 0.145016 0.0
C_ C_ 0.497609 0.730298 0.0920919 0.0
C_ C_ 0.472407 0.705623 0.111814 0.0
C_ C_ 0.471479 0.669032 0.105206 0.0
C_ C_ 0.49651 0.658066 0.0790275 0.0
C_ C_ 0.51981 0.683656 0.0593936 0.0
C_ C_ 0.634705 0.53623 0.167278 0.0
C_ C_ 0.665401 0.544726 0.139664 0.0
C_ C_ 0.384406 0.533773 0.136493 0.0
C_ C_ 0.413353 0.541779 0.110068 0.0
C_ C_ 0.387771 0.557109 0.0859562 0.0
C_ C_ 0.669945 0.568029 0.0889766 0.0
C_ C_ 0.642605 0.56379 0.116129 0.0
C_ C_ 0.413024 0.579403 0.0648629 0.0
C_ C_ 0.666112 0.596676 0.0696897 0.0
C_ C_ 0.430381 0.657225 0.489051 0.0
C_ C_ 0.416542 0.62753 0.00700845 0.0
C_ C_ 0.392127 0.632198 0.0347975 0.0
C_ C_ 0.380366 0.666644 0.0436273 0.0
C_ C_ 0.394123 0.695648 0.0247575 0.0
C_ C_ 0.56132 0.710002 0.477052 0.0
C_ C_ 0.57068 0.679229 0.457483 0.0
C_ C_ 0.618147 0.661178 0.460019 0.0
C_ C_ 0.627082 0.632648 0.440542 0.0
C_ C_ 0.585563 0.61949 0.421853 0.0
C_ C_ 0.5392 0.636727 0.419669 0.0
C_ C_ 0.533266 0.668426 0.435219 0.0
C_ C_ 0.518564 0.629281 0.391473 0.0
C_ C_ 0.591116 0.601402 0.395016 0.0
C_ C_ 0.502391 0.519702 0.342092 0.0
C_ C_ 0.527593 0.544377 0.361814 0.0
C_ C_ 0.528521 0.580968 0.355206 0.0
C_ C_ 0.50349 0.591934 0.329027 0.0
C_ C_ 0.48019 0.566344 0.309394 0.0
C_ C_ 0.365295 0.71377 0.417278 0.0
C_ C_ 0.334599 0.705274 0.389664 0.0
C_ C_ 0.615594 0.716227 0.386493 0.0
C_ C_ 0.586647 0.708221 0.360068 0.0
C_ C_ 0.612229 0.692891 0.335956 0.0
C_ C_ 0.330055 0.681971 0.338977 0.0
C_ C_ 0.357395 0.68621 0.366129 0.0
C_ C_ 0.586976 0.670597 0.314863 0.0
C_ C_ 0.333888 0.653324 0.31969 0.0
C_ C_ 0.569619 0.592775 0.239051 0.0
C_ C_ 0.583458 0.62247 0.257008 0.0
C_ C_ 0.607873 0.617802 0.284798 0.0
C_ C_ 0.619634 0.583356 0.293627 0.0
C_ C_ 0.605877 0.554352 0.274758 0.0
C_ C_ 0.56132 0.960002 0.272948 0.0
C_ C_ 0.57068 0.929229 0.292517 0.0
C_ C_ 0.618147 0.911178 0.289981 0.0
C_ C_ 0.627082 0.882648 0.309458 0.0
C_ C_ 0.585563 0.86949 0.328147 0.0
C_ C_ 0.5392 0.886727 0.330331 0.0
C_ C_ 0.533266 0.918426 0.314781 0.0
C_ C_ 0.518564 0.879281 0.358527 0.0
C_ C_ 0.591116 0.851402 0.354984 0.0
C_ C_ 0.502391 0.769702 0.407908 0.0
C_ C_ 0.527593 0.794377 0.388186 0.0
C_ C_ 0.528521 0.830968 0.394794 0.0
C_ C_ 0.50349 0.841934 0.420973 0.0
C_ C_ 0.48019 0.816344 0.440606 0.0
C_ C_ 0.365295 0.96377 0.332722 0.0
C_ C_ 0.334599 0.955274 0.360336 0.0
C_ C_ 0.615594 0.966227 0.363507 0.0
C_ C_ 0.586647 0.958221 0.389932 0.0
C_ C_ 0.612229 0.942891 0.414044 0.0
C_ C_ 0.330055 0.931971 0.411023 0.0
C_ C_ 0.357395 0.93621 0.383871 0.0
C_ C_ 0.586976 0.920597 0.435137 0.0
C_ C_ 0.333888 0.903324 0.43031 0.0
C_ C_ 0.569619 0.842775 0.010949 0.0
C_ C_ 0.583458 0.87247 0.492992 0.0
C_ C_ 0.607873 0.867802 0.465202 0.0
C_ C_ 0.619634 0.833356 0.456373 0.0
C_ C_ 0.605877 0.804352 0.475242 0.0
C_ C_ 0.43868 0.789998 0.0229477 0.0
C_ C_ 0.42932 0.820771 0.0425173 0.0
C_ C_ 0.381853 0.838822 0.0399812 0.0
C_ C_ 0.372918 0.867352 0.0594584 0.0
C_ C_ 0.414437 0.88051 0.0781469 0.0
C_ C_ 0.4608 0.863273 0.0803307 0.0
C_ C_ 0.466734 0.831574 0.0647812 0.0
C_ C_ 0.481436 0.870719 0.108527 0.0
C_ C_ 0.408884 0.898598 0.104984 0.0
C_ C_ 0.497609 0.980298 0.157908 0.0
C_ C_ 0.472407 0.955623 0.138186 0.0
C_ C_ 0.471479 0.919032 0.144794 0.0
C_ C_ 0.49651 0.908066 0.170973 0.0
C_ C_ 0.51981 0.933656 0.190606 0.0
C_ C_ 0.634705 0.78623 0.0827219 0.0
C_ C_ 0.665401 0.794726 0.110336 0.0
C_ C_ 0.384406 0.783773 0.113507 0.0
C_ C_ 0.413353 0.791779 0.139932 0.0
C_ C_ 0.387771 0.807109 0.164044 0.0
C_ C_ 0.669945 0.818029 0.161023 0.0
C_ C_ 0.642605 0.81379 0.133871 0.0
C_ C_ 0.413024 0.829403 0.185137 0.0
C_ C_ 0.666112 0.846676 0.18031 0.0
C_ C_ 0.430381 0.907225 0.260949 0.0
C_ C_ 0.416542 0.87753 0.242992 0.0
C_ C_ 0.392127 0.882198 0.215202 0.0
C_ C_ 0.380366 0.916644 0.206373 0.0
C_ C_ 0.394123 0.945648 0.225242 0.0
N_ N_ 0.519601 0.719087 0.066102 0.0
N_ N_ 0.450277 0.642872 0.126543 0.0
N_ N_ 0.378193 0.601806 0.0536496 0.0
N_ N_ 0.420902 0.690701 0.9986 0.0
N_ N_ 0.480399 0.530913 0.316102 0.0
N_ N_ 0.549723 0.607128 0.376543 0.0
N_ N_ 0.621807 0.648194 0.30365 0.0
N_ N_ 0.579098 0.559299 0.2486 0.0
N_ N_ 0.480399 0.780913 0.433898 0.0
N_ N_ 0.549723 0.857128 0.373457 0.0
N_ N_ 0.621807 0.898194 0.44635 0.0
N_ N_ 0.579098 0.809299 0.5014 0.0
N_ N_ 0.519601 0.969087 0.183898 0.0
N_ N_ 0.450277 0.892872 0.123457 0.0
N_ N_ 0.378193 0.851806 0.19635 0.0
N_ N_ 0.420902 0.940701 0.2514 0.0
O_ O_ 0.465517 0.514997 0.217173 0.0
O_ O_ 0.410651 0.534476 0.250578 0.0
O_ O_ 0.362123 0.655721 0.134274 0.0
O_ O_ 0.532653 0.620132 0.13586 0.0
O_ O_ 0.59232 0.551058 0.172831 0.0
O_ O_ 0.645557 0.510599 0.184197 0.0
O_ O_ 0.620206 0.605994 0.059287 0.0
O_ O_ 0.454156 0.569983 0.0492879 0.0
O_ O_ 0.534483 0.735003 0.467173 0.0
O_ O_ 0.589349 0.715524 0.000578323 0.0
O_ O_ 0.637877 0.594279 0.384274 0.0
O_ O_ 0.467347 0.629868 0.38586 0.0
O_ O_ 0.40768 0.698942 0.422831 0.0
O_ O_ 0.354443 0.739401 0.434197 0.0
O_ O_ 0.379794 0.644007 0.309287 0.0
O_ O_ 0.545844 0.680017 0.299288 0.0
O_ O_ 0.534483 0.985003 0.282827 0.0
O_ O_ 0.589349 0.965524 0.249422 0.0
O_ O_ 0.637877 0.844279 0.365726 0.0
O_ O_ 0.467347 0.879868 0.36414 0.0
O_ O_ 0.40768 0.948942 0.327169 0.0
O_ O_ 0.354443 0.989401 0.315803 0.0
O_ O_ 0.379794 0.894007 0.440713 0.0
O_ O_ 0.545844 0.930017 0.450712 0.0
O_ O_ 0.465517 0.764997 0.032827 0.0
O_ O_ 0.410651 0.784476 0.499422 0.0
O_ O_ 0.362123 0.905721 0.115726 0.0
O_ O_ 0.532653 0.870132 0.11414 0.0
O_ O_ 0.59232 0.801058 0.0771694 0.0
O_ O_ 0.645557 0.760599 0.0658027 0.0
O_ O_ 0.620206 0.855994 0.190713 0.0
O_ O_ 0.454156 0.819983 0.200712 0.0
Cd Cd 0.563502 0.511719 0.71467 0.0
Cd Cd 0.436498 0.738281 0.96467 0.0
Cd Cd 0.436498 0.988281 0.78533 0.0
Cd Cd 0.563502 0.761719 0.53533 0.0
H_ H_ 0.351294 0.579745 0.725897 0.0
H_ H_ 0.668104 0.629013 0.690298 0.0
H_ H_ 0.498892 0.565178 0.679747 0.0
H_ H_ 0.500395 0.758413 0.597662 0.0
H_ H_ 0.455477 0.714791 0.632561 0.0
H_ H_ 0.499181 0.629969 0.574356 0.0
H_ H_ 0.53885 0.675225 0.5391 0.0
H_ H_ 0.402979 0.52026 0.654784 0.0
H_ H_ 0.455113 0.536785 0.608694 0.0
H_ H_ 0.604364 0.574876 0.618937 0.0
H_ H_ 0.445366 0.653364 0.96672 0.0
H_ H_ 0.423131 0.600974 0.498905 0.0
H_ H_ 0.360554 0.670902 0.564808 0.0
H_ H_ 0.381605 0.721767 0.530389 0.0
H_ H_ 0.648706 0.670255 0.975897 0.0
H_ H_ 0.331896 0.620987 0.940298 0.0
H_ H_ 0.501108 0.684822 0.929747 0.0
H_ H_ 0.499605 0.991587 0.847662 0.0
H_ H_ 0.544523 0.535209 0.882561 0.0
H_ H_ 0.500819 0.620031 0.824356 0.0
H_ H_ 0.46115 0.574775 0.7891 0.0
H_ H_ 0.597021 0.72974 0.904784 0.0
H_ H_ 0.544887 0.713215 0.858694 0.0
H_ H_ 0.395636 0.675124 0.868937 0.0
H_ H_ 0.554634 0.596636 0.71672 0.0
H_ H_ 0.576869 0.649026 0.748905 0.0
H_ H_ 0.639446 0.579098 0.814808 0.0
H_ H_ 0.618395 0.528233 0.780389 0.0
H_ H_ 0.648706 0.920255 0.774103 0.0
H_ H_ 0.331896 0.870987 0.809702 0.0
H_ H_ 0.501108 0.934822 0.820253 0.0
H_ H_ 0.499605 0.741587 0.902338 0.0
H_ H_ 0.544523 0.785209 0.867439 0.0
H_ H_ 0.500819 0.870031 0.925644 0.0
H_ H_ 0.46115 0.824775 0.9609 0.0
H_ H_ 0.597021 0.97974 0.845216 0.0
H_ H_ 0.544887 0.963215 0.891306 0.0
H_ H_ 0.395636 0.925124 0.881063 0.0
H_ H_ 0.554634 0.846636 0.53328 0.0
H_ H_ 0.576869 0.899026 0.00109454 0.0
H_ H_ 0.639446 0.829098 0.935192 0.0
H_ H_ 0.618395 0.778233 0.969611 0.0
H_ H_ 0.351294 0.829745 0.524103 0.0
H_ H_ 0.668104 0.879013 0.559702 0.0
H_ H_ 0.498892 0.815178 0.570253 0.0
H_ H_ 0.500395 0.508413 0.652338 0.0
H_ H_ 0.455477 0.964791 0.617439 0.0
H_ H_ 0.499181 0.879969 0.675644 0.0
H_ H_ 0.53885 0.925225 0.7109 0.0
H_ H_ 0.402979 0.77026 0.595216 0.0
H_ H_ 0.455113 0.786785 0.641306 0.0
H_ H_ 0.604364 0.824876 0.631063 0.0
H_ H_ 0.445366 0.903364 0.78328 0.0
H_ H_ 0.423131 0.850974 0.751095 0.0
H_ H_ 0.360554 0.920902 0.685192 0.0
H_ H_ 0.381605 0.971767 0.719611 0.0
C_ C_ 0.43868 0.539998 0.727052 0.0
C_ C_ 0.42932 0.570771 0.707483 0.0
C_ C_ 0.381853 0.588822 0.710019 0.0
C_ C_ 0.372918 0.617352 0.690542 0.0
C_ C_ 0.414437 0.63051 0.671853 0.0
C_ C_ 0.4608 0.613273 0.669669 0.0
C_ C_ 0.466734 0.581574 0.685219 0.0
C_ C_ 0.481436 0.620719 0.641473 0.0
C_ C_ 0.408884 0.648598 0.645016 0.0
C_ C_ 0.497609 0.730298 0.592092 0.0
C_ C_ 0.472407 0.705623 0.611814 0.0
C_ C_ 0.471479 0.669032 0.605206 0.0
C_ C_ 0.49651 0.658066 0.579027 0.0
C_ C_ 0.51981 0.683656 0.559394 0.0
C_ C_ 0.634705 0.53623 0.667278 0.0
C_ C_ 0.665401 0.544726 0.639664 0.0
C_ C_ 0.384406 0.533773 0.636493 0.0
C_ C_ 0.413353 0.541779 0.610068 0.0
C_ C_ 0.387771 0.557109 0.585956 0.0
C_ C_ 0.669945 0.568029 0.588977 0.0
C_ C_ 0.642605 0.56379 0.616129 0.0
C_ C_ 0.413024 0.579403 0.564863 0.0
C_ C_ 0.666112 0.596676 0.56969 0.0
C_ C_ 0.430381 0.657225 0.989051 0.0
C_ C_ 0.416542 0.62753 0.507008 0.0
C_ C_ 0.392127 0.632198 0.534798 0.0
C_ C_ 0.380366 0.666644 0.543627 0.0
C_ C_ 0.394123 0.695648 0.524758 0.0
C_ C_ 0.56132 0.710002 0.977052 0.0
C_ C_ 0.57068 0.679229 0.957483 0.0
C_ C_ 0.618147 0.661178 0.960019 0.0
C_ C_ 0.627082 0.632648 0.940542 0.0
C_ C_ 0.585563 0.61949 0.921853 0.0
C_ C_ 0.5392 0.636727 0.919669 0.0
C_ C_ 0.533266 0.668426 0.935219 0.0
C_ C_ 0.518564 0.629281 0.891473 0.0
C_ C_ 0.591116 0.601402 0.895016 0.0
C_ C_ 0.502391 0.519702 0.842092 0.0
C_ C_ 0.527593 0.544377 0.861814 0.0
C_ C_ 0.528521 0.580968 0.855206 0.0
C_ C_ 0.50349 0.591934 0.829027 0.0
C_ C_ 0.48019 0.566344 0.809394 0.0
C_ C_ 0.365295 0.71377 0.917278 0.0
C_ C_ 0.334599 0.705274 0.889664 0.0
C_ C_ 0.615594 0.716227 0.886493 0.0
C_ C_ 0.586647 0.708221 0.860068 0.0
C_ C_ 0.612229 0.692891 0.835956 0.0
C_ C_ 0.330055 0.681971 0.838977 0.0
C_ C_ 0.357395 0.68621 0.866129 0.0
C_ C_ 0.586976 0.670597 0.814863 0.0
C_ C_ 0.333888 0.653324 0.81969 0.0
C_ C_ 0.569619 0.592775 0.739051 0.0
C_ C_ 0.583458 0.62247 0.757008 0.0
C_ C_ 0.607873 0.617802 0.784798 0.0
C_ C_ 0.619634 0.583356 0.793627 0.0
C_ C_ 0.605877 0.554352 0.774758 0.0
C_ C_ 0.56132 0.960002 0.772948 0.0
C_ C_ 0.57068 0.929229 0.792517 0.0
C_ C_ 0.618147 0.911178 0.789981 0.0
C_ C_ 0.627082 0.882648 0.809458 0.0
C_ C_ 0.585563 0.86949 0.828147 0.0
C_ C_ 0.5392 0.886727 0.830331 0.0
C_ C_ 0.533266 0.918426 0.814781 0.0
C_ C_ 0.518564 0.879281 0.858527 0.0
C_ C_ 0.591116 0.851402 0.854984 0.0
C_ C_ 0.502391 0.769702 0.907908 0.0
C_ C_ 0.527593 0.794377 0.888186 0.0
C_ C_ 0.528521 0.830968 0.894794 0.0
C_ C_ 0.50349 0.841934 0.920973 0.0
C_ C_ 0.48019 0.816344 0.940606 0.0
C_ C_ 0.365295 0.96377 0.832722 0.0
C_ C_ 0.334599 0.955274 0.860336 0.0
C_ C_ 0.615594 0.966227 0.863507 0.0
C_ C_ 0.586647 0.958221 0.889932 0.0
C_ C_ 0.612229 0.942891 0.914044 0.0
C_ C_ 0.330055 0.931971 0.911023 0.0
C_ C_ 0.357395 0.93621 0.883871 0.0
C_ C_ 0.586976 0.920597 0.935137 0.0
C_ C_ 0.333888 0.903324 0.93031 0.0
C_ C_ 0.569619 0.842775 0.510949 0.0
C_ C_ 0.583458 0.87247 0.992992 0.0
C_ C_ 0.607873 0.867802 0.965202 0.0
C_ C_ 0.619634 0.833356 0.956373 0.0
C_ C_ 0.605877 0.804352 0.975242 0.0
C_ C_ 0.43868 0.789998 0.522948 0.0
C_ C_ 0.42932 0.820771 0.542517 0.0
C_ C_ 0.381853 0.838822 0.539981 0.0
C_ C_ 0.372918 0.867352 0.559458 0.0
C_ C_ 0.414437 0.88051 0.578147 0.0
C_ C_ 0.4608 0.863273 0.580331 0.0
C_ C_ 0.466734 0.831574 0.564781 0.0
C_ C_ 0.481436 0.870719 0.608527 0.0
C_ C_ 0.408884 0.898598 0.604984 0.0
C_ C_ 0.497609 0.980298 0.657908 0.0
C_ C_ 0.472407 0.955623 0.638186 0.0
C_ C_ 0.471479 0.919032 0.644794 0.0
C_ C_ 0.49651 0.908066 0.670973 0.0
C_ C_ 0.51981 0.933656 0.690606 0.0
C_ C_ 0.634705 0.78623 0.582722 0.0
C_ C_ 0.665401 0.794726 0.610336 0.0
C_ C_ 0.384406 0.783773 0.613507 0.0
C_ C_ 0.413353 0.791779 0.639932 0.0
C_ C_ 0.387771 0.807109 0.664044 0.0
C_ C_ 0.669945 0.818029 0.661023 0.0
C_ C_ 0.642605 0.81379 0.633871 0.0
C_ C_ 0.413024 0.829403 0.685137 0.0
C_ C_ 0.666112 0.846676 0.68031 0.0
C_ C_ 0.430381 0.907225 0.760949 0.0
C_ C_ 0.416542 0.87753 0.742992 0.0
C_ C_ 0.392127 0.882198 0.715202 0.0
C_ C_ 0.380366 0.916644 0.706373 0.0
C_ C_ 0.394123 0.945648 0.725242 0.0
N_ N_ 0.519601 0.719087 0.566102 0.0
N_ N_ 0.450277 0.642872 0.626543 0.0
N_ N_ 0.378193 0.601806 0.55365 0.0
N_ N_ 0.420902 0.690701 0.4986 0.0
N_ N_ 0.480399 0.530913 0.816102 0.0
N_ N_ 0.549723 0.607128 0.876543 0.0
N_ N_ 0.621807 0.648194 0.80365 0.0
N_ N_ 0.579098 0.559299 0.7486 0.0
N_ N_ 0.480399 0.780913 0.933898 0.0
N_ N_ 0.549723 0.857128 0.873457 0.0
N_ N_ 0.621807 0.898194 0.94635 0.0
N_ N_ 0.579098 0.809299 0.00139979 0.0
N_ N_ 0.519601 0.969087 0.683898 0.0
N_ N_ 0.450277 0.892872 0.623457 0.0
N_ N_ 0.378193 0.851806 0.69635 0.0
N_ N_ 0.420902 0.940701 0.7514 0.0
O_ O_ 0.465517 0.514997 0.717173 0.0
O_ O_ 0.410651 0.534476 0.750578 0.0
O_ O_ 0.362123 0.655721 0.634274 0.0
O_ O_ 0.532653 0.620132 0.63586 0.0
O_ O_ 0.59232 0.551058 0.672831 0.0
O_ O_ 0.645557 0.510599 0.684197 0.0
O_ O_ 0.620206 0.605994 0.559287 0.0
O_ O_ 0.454156 0.569983 0.549288 0.0
O_ O_ 0.534483 0.735003 0.967173 0.0
O_ O_ 0.589349 0.715524 0.500578 0.0
O_ O_ 0.637877 0.594279 0.884274 0.0
O_ O_ 0.467347 0.629868 0.88586 0.0
O_ O_ 0.40768 0.698942 0.922831 0.0
O_ O_ 0.354443 0.739401 0.934197 0.0
O_ O_ 0.379794 0.644007 0.809287 0.0
O_ O_ 0.545844 0.680017 0.799288 0.0
O_ O_ 0.534483 0.985003 0.782827 0.0
O_ O_ 0.589349 0.965524 0.749422 0.0
O_ O_ 0.637877 0.844279 0.865726 0.0
O_ O_ 0.467347 0.879868 0.86414 0.0
O_ O_ 0.40768 0.948942 0.827169 0.0
O_ O_ 0.354443 0.989401 0.815803 0.0
O_ O_ 0.379794 0.894007 0.940713 0.0
O_ O_ 0.545844 0.930017 0.950712 0.0
O_ O_ 0.465517 0.764997 0.532827 0.0
O_ O_ 0.410651 0.784476 0.999422 0.0
O_ O_ 0.362123 0.905721 0.615726 0.0
O_ O_ 0.532653 0.870132 0.61414 0.0
O_ O_ 0.59232 0.801058 0.577169 0.0
O_ O_ 0.645557 0.760599 0.565803 0.0
O_ O_ 0.620206 0.855994 0.690713 0.0
O_ O_ 0.454156 0.819983 0.700712 0.0
Cd Cd 0.896835 0.0117191 0.21467 0.0
Cd Cd 0.769832 0.238281 0.46467 0.0
Cd Cd 0.769832 0.488281 0.28533 0.0
Cd Cd 0.896835 0.261719 0.0353296 0.0
H_ H_ 0.684627 0.0797452 0.225897 0.0
H_ H_ 0.00143726 0.129013 0.190298 0.0
H_ H_ 0.832225 0.0651784 0.179747 0.0
H_ H_ 0.833728 0.258413 0.0976618 0.0
H_ H_ 0.78881 0.214791 0.132561 0.0
H_ H_ 0.832514 0.129969 0.0743557 0.0
H_ H_ 0.872183 0.175225 0.0391002 0.0
H_ H_ 0.736312 0.0202596 0.154784 0.0
H_ H_ 0.788447 0.0367846 0.108694 0.0
H_ H_ 0.937697 0.0748764 0.118937 0.0
H_ H_ 0.778699 0.153364 0.46672 0.0
H_ H_ 0.756465 0.100974 0.998905 0.0
H_ H_ 0.693888 0.170902 0.0648075 0.0
H_ H_ 0.714938 0.221767 0.0303887 0.0
H_ H_ 0.98204 0.170255 0.475897 0.0
H_ H_ 0.665229 0.120987 0.440298 0.0
H_ H_ 0.834442 0.184822 0.429747 0.0
H_ H_ 0.832939 0.491587 0.347662 0.0
H_ H_ 0.877857 0.035209 0.382561 0.0
H_ H_ 0.834153 0.120031 0.324356 0.0
H_ H_ 0.794483 0.0747749 0.2891 0.0
H_ H_ 0.930355 0.22974 0.404784 0.0
H_ H_ 0.87822 0.213215 0.358694 0.0
H_ H_ 0.728969 0.175124 0.368937 0.0
H_ H_ 0.887968 0.0966362 0.21672 0.0
H_ H_ 0.910202 0.149026 0.248905 0.0
H_ H_ 0.972779 0.0790981 0.314808 0.0
H_ H_ 0.951728 0.0282328 0.280389 0.0
H_ H_ 0.98204 0.420255 0.274103 0.0
H_ H_ 0.665229 0.370987 0.309702 0.0
H_ H_ 0.834442 0.434822 0.320253 0.0
H_ H_ 0.832939 0.241587 0.402338 0.0
H_ H_ 0.877857 0.285209 0.367439 0.0
H_ H_ 0.834153 0.370031 0.425644 0.0
H_ H_ 0.794483 0.324775 0.4609 0.0
H_ H_ 0.930355 0.47974 0.345216 0.0
H_ H_ 0.87822 0.463215 0.391306 0.0
H_ H_ 0.728969 0.425124 0.381063 0.0
H_ H_ 0.887968 0.346636 0.0332805 0.0
H_ H_ 0.910202 0.399026 0.501095 0.0
H_ H_ 0.972779 0.329098 0.435192 0.0
H_ H_ 0.951728 0.278233 0.469611 0.0
H_ H_ 0.684627 0.329745 0.0241033 0.0
H_ H_ 0.00143727 0.379013 0.0597022 0.0
H_ H_ 0.832225 0.315178 0.0702528 0.0
H_ H_ 0.833728 0.00841344 0.152338 0.0
H_ H_ 0.78881 0.464791 0.117439 0.0
H_ H_ 0.832514 0.379969 0.175644 0.0
H_ H_ 0.872183 0.425225 0.2109 0.0
H_ H_ 0.736312 0.27026 0.0952161 0.0
H_ H_ 0.788447 0.286785 0.141306 0.0
H_ H_ 0.937697 0.324876 0.131063 0.0
H_ H_ 0.778699 0.403364 0.28328 0.0
H_ H_ 0.756465 0.350974 0.251095 0.0
H_ H_ 0.693888 0.420902 0.185192 0.0
H_ H_ 0.714938 0.471767 0.219611 0.0
C_ C_ 0.772014 0.0399984 0.227052 0.0
C_ C_ 0.762653 0.0707715 0.207483 0.0
C_ C_ 0.715187 0.0888219 0.210019 0.0
C_ C_ 0.706251 0.117352 0.190542 0.0
C_ C_ 0.747771 0.13051 0.171853 0.0
C_ C_ 0.794133 0.113273 0.169669 0.0
C_ C_ 0.800068 0.0815736 0.185219 0.0
C_ C_ 0.814769 0.120719 0.141473 0.0
C_ C_ 0.742217 0.148598 0.145016 0.0
C_ C_ 0.830943 0.230298 0.0920919 0.0
C_ C_ 0.80574 0.205623 0.111814 0.0
C_ C_ 0.804812 0.169032 0.105206 0.0
C_ C_ 0.829843 0.158066 0.0790275 0.0
C_ C_ 0.853144 0.183656 0.0593936 0.0
C_ C_ 0.968039 0.0362297 0.167278 0.0
C_ C_ 0.998734 0.0447258 0.139664 0.0
C_ C_ 0.717739 0.0337728 0.136493 0.0
C_ C_ 0.746686 0.0417792 0.110068 0.0
C_ C_ 0.721104 0.0571085 0.0859562 0.0
C_ C_ 0.00327862 0.0680289 0.0889766 0.0
C_ C_ 0.975938 0.0637899 0.116129 0.0
C_ C_ 0.746357 0.0794027 0.0648629 0.0
C_ C_ 0.999445 0.0966762 0.0696897 0.0
C_ C_ 0.763715 0.157225 0.489051 0.0
C_ C_ 0.749875 0.12753 0.00700845 0.0
C_ C_ 0.725461 0.132198 0.0347975 0.0
C_ C_ 0.713699 0.166644 0.0436273 0.0
C_ C_ 0.727456 0.195648 0.0247575 0.0
C_ C_ 0.894653 0.210002 0.477052 0.0
C_ C_ 0.904014 0.179229 0.457483 0.0
C_ C_ 0.95148 0.161178 0.460019 0.0
C_ C_ 0.960415 0.132648 0.440542 0.0
C_ C_ 0.918896 0.11949 0.421853 0.0
C_ C_ 0.872534 0.136727 0.419669 0.0
C_ C_ 0.866599 0.168426 0.435219 0.0
C_ C_ 0.851898 0.129281 0.391473 0.0
C_ C_ 0.924449 0.101402 0.395016 0.0
C_ C_ 0.835724 0.0197024 0.342092 0.0
C_ C_ 0.860926 0.044377 0.361814 0.0
C_ C_ 0.861855 0.0809681 0.355206 0.0
C_ C_ 0.836823 0.0919345 0.329027 0.0
C_ C_ 0.813523 0.0663441 0.309394 0.0
C_ C_ 0.698628 0.21377 0.417278 0.0
C_ C_ 0.667933 0.205274 0.389664 0.0
C_ C_ 0.948927 0.216227 0.386493 0.0
C_ C_ 0.91998 0.208221 0.360068 0.0
C_ C_ 0.945562 0.192891 0.335956 0.0
C_ C_ 0.663388 0.181971 0.338977 0.0
C_ C_ 0.690729 0.18621 0.366129 0.0
C_ C_ 0.92031 0.170597 0.314863 0.0
C_ C_ 0.667221 0.153324 0.31969 0.0
C_ C_ 0.902952 0.0927748 0.239051 0.0
C_ C_ 0.916792 0.12247 0.257008 0.0
C_ C_ 0.941206 0.117802 0.284798 0.0
C_ C_ 0.952968 0.0833558 0.293627 0.0
C_ C_ 0.93921 0.0543523 0.274758 0.0
C_ C_ 0.894653 0.460002 0.272948 0.0
C_ C_ 0.904014 0.429229 0.292517 0.0
C_ C_ 0.95148 0.411178 0.289981 0.0
C_ C_ 0.960415 0.382648 0.309458 0.0
C_ C_ 0.918896 0.36949 0.328147 0.0
C_ C_ 0.872534 0.386727 0.330331 0.0
C_ C_ 0.866599 0.418426 0.314781 0.0
C_ C_ 0.851898 0.379281 0.358527 0.0
C_ C_ 0.924449 0.351402 0.354984 0.0
C_ C_ 0.835724 0.269702 0.407908 0.0
C_ C_ 0.860926 0.294377 0.388186 0.0
C_ C_ 0.861855 0.330968 0.394794 0.0
C_ C_ 0.836823 0.341934 0.420973 0.0
C_ C_ 0.813523 0.316344 0.440606 0.0
C_ C_ 0.698628 0.46377 0.332722 0.0
C_ C_ 0.667933 0.455274 0.360336 0.0
C_ C_ 0.948927 0.466227 0.363507 0.0
C_ C_ 0.91998 0.458221 0.389932 0.0
C_ C_ 0.945562 0.442891 0.414044 0.0
C_ C_ 0.663388 0.431971 0.411023 0.0
C_ C_ 0.690729 0.43621 0.383871 0.0
C_ C_ 0.92031 0.420597 0.435137 0.0
C_ C_ 0.667221 0.403324 0.43031 0.0
C_ C_ 0.902952 0.342775 0.010949 0.0
C_ C_ 0.916792 0.37247 0.492992 0.0
C_ C_ 0.941206 0.367802 0.465202 0.0
C_ C_ 0.952968 0.333356 0.456373 0.0
C_ C_ 0.93921 0.304352 0.475242 0.0
C_ C_ 0.772014 0.289998 0.0229477 0.0
C_ C_ 0.762653 0.320771 0.0425173 0.0
C_ C_ 0.715187 0.338822 0.0399812 0.0
C_ C_ 0.706251 0.367352 0.0594584 0.0
C_ C_ 0.747771 0.38051 0.0781469 0.0
C_ C_ 0.794133 0.363273 0.0803307 0.0
C_ C_ 0.800068 0.331574 0.0647813 0.0
C_ C_ 0.814769 0.370719 0.108527 0.0
C_ C_ 0.742217 0.398598 0.104984 0.0
C_ C_ 0.830943 0.480298 0.157908 0.0
C_ C_ 0.80574 0.455623 0.138186 0.0
C_ C_ 0.804812 0.419032 0.144794 0.0
C_ C_ 0.829843 0.408066 0.170973 0.0
C_ C_ 0.853144 0.433656 0.190606 0.0
C_ C_ 0.968039 0.28623 0.0827219 0.0
C_ C_ 0.998734 0.294726 0.110336 0.0
C_ C_ 0.717739 0.283773 0.113507 0.0
C_ C_ 0.746686 0.291779 0.139932 0.0
C_ C_ 0.721104 0.307109 0.164044 0.0
C_ C_ 0.00327863 0.318029 0.161023 0.0
C_ C_ 0.975938 0.31379 0.133871 0.0
C_ C_ 0.746357 0.329403 0.185137 0.0
C_ C_ 0.999445 0.346676 0.18031 0.0
C_ C_ 0.763715 0.407225 0.260949 0.0
C_ C_ 0.749875 0.37753 0.242992 0.0
C_ C_ 0.725461 0.382198 0.215202 0.0
C_ C_ 0.713699 0.416644 0.206373 0.0
C_ C_ 0.727456 0.445648 0.225242 0.0
N_ N_ 0.852935 0.219087 0.066102 0.0
N_ N_ 0.783611 0.142872 0.126543 0.0
N_ N_ 0.711527 0.101806 0.0536496 0.0
N_ N_ 0.754235 0.190701 0.9986 0.0
N_ N_ 0.813732 0.030913 0.316102 0.0
N_ N_ 0.883056 0.107128 0.376543 0.0
N_ N_ 0.95514 0.148194 0.30365 0.0
N_ N_ 0.912431 0.0592986 0.2486 0.0
N_ N_ 0.813732 0.280913 0.433898 0.0
N_ N_ 0.883056 0.357128 0.373457 0.0
N_ N_ 0.95514 0.398194 0.44635 0.0
N_ N_ 0.912431 0.309299 0.5014 0.0
N_ N_ 0.852935 0.469087 0.183898 0.0
N_ N_ 0.783611 0.392872 0.123457 0.0
N_ N_ 0.711527 0.351806 0.19635 0.0
N_ N_ 0.754235 0.440701 0.2514 0.0
O_ O_ 0.79885 0.0149975 0.217173 0.0
O_ O_ 0.743984 0.0344756 0.250578 0.0
O_ O_ 0.695457 0.155721 0.134274 0.0
O_ O_ 0.865986 0.120132 0.13586 0.0
O_ O_ 0.925653 0.0510577 0.172831 0.0
O_ O_ 0.978891 0.0105991 0.184197 0.0
O_ O_ 0.95354 0.105994 0.059287 0.0
O_ O_ 0.78749 0.0699826 0.0492879 0.0
O_ O_ 0.867816 0.235003 0.467173 0.0
O_ O_ 0.922682 0.215524 0.000578323 0.0
O_ O_ 0.97121 0.094279 0.384274 0.0
O_ O_ 0.80068 0.129868 0.38586 0.0
O_ O_ 0.741013 0.198942 0.422831 0.0
O_ O_ 0.687776 0.239401 0.434197 0.0
O_ O_ 0.713127 0.144006 0.309287 0.0
O_ O_ 0.879177 0.180017 0.299288 0.0
O_ O_ 0.867816 0.485003 0.282827 0.0
O_ O_ 0.922682 0.465524 0.249422 0.0
O_ O_ 0.97121 0.344279 0.365726 0.0
O_ O_ 0.80068 0.379868 0.36414 0.0
O_ O_ 0.741013 0.448942 0.327169 0.0
O_ O_ 0.687776 0.489401 0.315803 0.0
O_ O_ 0.713127 0.394006 0.440713 0.0
O_ O_ 0.879177 0.430017 0.450712 0.0
O_ O_ 0.79885 0.264997 0.032827 0.0
O_ O_ 0.743984 0.284476 0.499422 0.0
O_ O_ 0.695457 0.405721 0.115726 0.0
O_ O_ 0.865986 0.370132 0.11414 0.0
O_ O_ 0.925653 0.301058 0.0771694 0.0
O_ O_ 0.978891 0.260599 0.0658027 0.0
O_ O_ 0.95354 0.355994 0.190713 0.0
O_ O_ 0.78749 0.319983 0.200712 0.0
Cd Cd 0.896835 0.0117191 0.71467 0.0
Cd Cd 0.769832 0.238281 0.96467 0.0
Cd Cd 0.769832 0.488281 0.78533 0.0
Cd Cd 0.896835 0.261719 0.53533 0.0
H_ H_ 0.684627 0.0797452 0.725897 0.0
H_ H_ 0.00143726 0.129013 0.690298 0.0
H_ H_ 0.832225 0.0651784 0.679747 0.0
H_ H_ 0.833728 0.258413 0.597662 0.0
H_ H_ 0.78881 0.214791 0.632561 0.0
H_ H_ 0.832514 0.129969 0.574356 0.0
H_ H_ 0.872183 0.175225 0.5391 0.0
H_ H_ 0.736312 0.0202596 0.654784 0.0
H_ H_ 0.788447 0.0367846 0.608694 0.0
H_ H_ 0.937697 0.0748764 0.618937 0.0
H_ H_ 0.778699 0.153364 0.96672 0.0
H_ H_ 0.756465 0.100974 0.498905 0.0
H_ H_ 0.693888 0.170902 0.564808 0.0
H_ H_ 0.714938 0.221767 0.530389 0.0
H_ H_ 0.98204 0.170255 0.975897 0.0
H_ H_ 0.665229 0.120987 0.940298 0.0
H_ H_ 0.834442 0.184822 0.929747 0.0
H_ H_ 0.832939 0.491587 0.847662 0.0
H_ H_ 0.877857 0.035209 0.882561 0.0
H_ H_ 0.834153 0.120031 0.824356 0.0
H_ H_ 0.794483 0.0747749 0.7891 0.0
H_ H_ 0.930355 0.22974 0.904784 0.0
H_ H_ 0.87822 0.213215 0.858694 0.0
H_ H_ 0.728969 0.175124 0.868937 0.0
H_ H_ 0.887968 0.0966362 0.71672 0.0
H_ H_ 0.910202 0.149026 0.748905 0.0
H_ H_ 0.972779 0.0790981 0.814808 0.0
H_ H_ 0.951728 0.0282328 0.780389 0.0
H_ H_ 0.98204 0.420255 0.774103 0.0
H_ H_ 0.665229 0.370987 0.809702 0.0
H_ H_ 0.834442 0.434822 0.820253 0.0
H_ H_ 0.832939 0.241587 0.902338 0.0
H_ H_ 0.877857 0.285209 0.867439 0.0
H_ H_ 0.834153 0.370031 0.925644 0.0
H_ H_ 0.794483 0.324775 0.9609 0.0
H_ H_ 0.930355 0.47974 0.845216 0.0
H_ H_ 0.87822 0.463215 0.891306 0.0
H_ H_ 0.728969 0.425124 0.881063 0.0
H_ H_ 0.887968 0.346636 0.53328 0.0
H_ H_ 0.910202 0.399026 0.00109454 0.0
H_ H_ 0.972779 0.329098 0.935192 0.0
H_ H_ 0.951728 0.278233 0.969611 0.0
H_ H_ 0.684627 0.329745 0.524103 0.0
H_ H_ 0.00143727 0.379013 0.559702 0.0
H_ H_ 0.832225 0.315178 0.570253 0.0
H_ H_ 0.833728 0.00841344 0.652338 0.0
H_ H_ 0.78881 0.464791 0.617439 0.0
H_ H_ 0.832514 0.379969 0.675644 0.0
H_ H_ 0.872183 0.425225 0.7109 0.0
H_ H_ 0.736312 0.27026 0.595216 0.0
H_ H_ 0.788447 0.286785 0.641306 0.0
H_ H_ 0.937697 0.324876 0.631063 0.0
H_ H_ 0.778699 0.403364 0.78328 0.0
H_ H_ 0.756465 0.350974 0.751095 0.0
H_ H_ 0.693888 0.420902 0.685192 0.0
H_ H_ 0.714938 0.471767 0.719611 0.0
C_ C_ 0.772014 0.0399984 0.727052 0.0
C_ C_ 0.762653 0.0707715 0.707483 0.0
C_ C_ 0.715187 0.0888219 0.710019 0.0
C_ C_ 0.706251 0.117352 0.690542 0.0
C_ C_ 0.747771 0.13051 0.671853 0.0
C_ C_ 0.794133 0.113273 0.669669 0.0
C_ C_ 0.800068 0.0815736 0.685219 0.0
C_ C_ 0.814769 0.120719 0.641473 0.0
C_ C_ 0.742217 0.148598 0.645016 0.0
C_ C_ 0.830943 0.230298 0.592092 0.0
C_ C_ 0.80574 0.205623 0.611814 0.0
C_ C_ 0.804812 0.169032 0.605206 0.0
C_ C_ 0.829843 0.158066 0.579027 0.0
C_ C_ 0.853144 0.183656 0.559394 0.0
C_ C_ 0.968039 0.0362297 0.667278 0.0
C_ C_ 0.998734 0.0447258 0.639664 0.0
C_ C_ 0.717739 0.0337728 0.636493 0.0
C_ C_ 0.746686 0.0417792 0.610068 0.0
C_ C_ 0.721104 0.0571085 0.585956 0.0
C_ C_ 0.00327862 0.0680289 0.588977 0.0
C_ C_ 0.975938 0.0637899 0.616129 0.0
C_ C_ 0.746357 0.0794027 0.564863 0.0
C_ C_ 0.999445 0.0966762 0.56969 0.0
C_ C_ 0.763715 0.157225 0.989051 0.0
C_ C_ 0.749875 0.12753 0.507008 0.0
C_ C_ 0.725461 0.132198 0.534798 0.0
C_ C_ 0.713699 0.166644 0.543627 0.0
C_ C_ 0.727456 0.195648 0.524758 0.0
C_ C_ 0.894653 0.210002 0.977052 0.0
C_ C_ 0.904014 0.179229 0.957483 0.0
C_ C_ 0.95148 0.161178 0.960019 0.0
C_ C_ 0.960415 0.132648 0.940542 0.0
C_ C_ 0.918896 0.11949 0.921853 0.0
C_ C_ 0.872534 0.136727 0.919669 0.0
C_ C_ 0.866599 0.168426 0.935219 0.0
C_ C_ 0.851898 0.129281 0.891473 0.0
C_ C_ 0.924449 0.101402 0.895016 0.0
C_ C_ 0.835724 0.0197024 0.842092 0.0
C_ C_ 0.860926 0.044377 0.861814 0.0
C_ C_ 0.861855 0.0809681 0.855206 0.0
C_ C_ 0.836823 0.0919345 0.829027 0.0
C_ C_ 0.813523 0.0663441 0.809394 0.0
C_ C_ 0.698628 0.21377 0.917278 0.0
C_ C_ 0.667933 0.205274 0.889664 0.0
C_ C_ 0.948927 0.216227 0.886493 0.0
C_ C_ 0.91998 0.208221 0.860068 0.0
C_ C_ 0.945562 0.192891 0.835956 0.0
C_ C_ 0.663388 0.181971 0.838977 0.0
C_ C_ 0.690729 0.18621 0.866129 0.0
C_ C_ 0.92031 0.170597 0.814863 0.0
C_ C_ 0.667221 0.153324 0.81969 0.0
C_ C_ 0.902952 0.0927748 0.739051 0.0
C_ C_ 0.916792 0.12247 0.757008 0.0
C_ C_ 0.941206 0.117802 0.784798 0.0
C_ C_ 0.952968 0.0833558 0.793627 0.0
C_ C_ 0.93921 0.0543523 0.774758 0.0
C_ C_ 0.894653 0.460002 0.772948 0.0
C_ C_ 0.904014 0.429229 0.792517 0.0
C_ C_ 0.95148 0.411178 0.789981 0.0
C_ C_ 0.960415 0.382648 0.809458 0.0
C_ C_ 0.918896 0.36949 0.828147 0.0
C_ C_ 0.872534 0.386727 0.830331 0.0
C_ C_ 0.866599 0.418426 0.814781 0.0
C_ C_ 0.851898 0.379281 0.858527 0.0
C_ C_ 0.924449 0.351402 0.854984 0.0
C_ C_ 0.835724 0.269702 0.907908 0.0
C_ C_ 0.860926 0.294377 0.888186 0.0
C_ C_ 0.861855 0.330968 0.894794 0.0
C_ C_ 0.836823 0.341934 0.920973 0.0
C_ C_ 0.813523 0.316344 0.940606 0.0
C_ C_ 0.698628 0.46377 0.832722 0.0
C_ C_ 0.667933 0.455274 0.860336 0.0
C_ C_ 0.948927 0.466227 0.863507 0.0
C_ C_ 0.91998 0.458221 0.889932 0.0
C_ C_ 0.945562 0.442891 0.914044 0.0
C_ C_ 0.663388 0.431971 0.911023 0.0
C_ C_ 0.690729 0.43621 0.883871 0.0
C_ C_ 0.92031 0.420597 0.935137 0.0
C_ C_ 0.667221 0.403324 0.93031 0.0
C_ C_ 0.902952 0.342775 0.510949 0.0
C_ C_ 0.916792 0.37247 0.992992 0.0
C_ C_ 0.941206 0.367802 0.965202 0.0
C_ C_ 0.952968 0.333356 0.956373 0.0
C_ C_ 0.93921 0.304352 0.975242 0.0
C_ C_ 0.772014 0.289998 0.522948 0.0
C_ C_ 0.762653 0.320771 0.542517 0.0
C_ C_ 0.715187 0.338822 0.539981 0.0
C_ C_ 0.706251 0.367352 0.559458 0.0
C_ C_ 0.747771 0.38051 0.578147 0.0
C_ C_ 0.794133 0.363273 0.580331 0.0
C_ C_ 0.800068 0.331574 0.564781 0.0
C_ C_ 0.814769 0.370719 0.608527 0.0
C_ C_ 0.742217 0.398598 0.604984 0.0
C_ C_ 0.830943 0.480298 0.657908 0.0
C_ C_ 0.80574 0.455623 0.638186 0.0
C_ C_ 0.804812 0.419032 0.644794 0.0
C_ C_ 0.829843 0.408066 0.670973 0.0
C_ C_ 0.853144 0.433656 0.690606 0.0
C_ C_ 0.968039 0.28623 0.582722 0.0
C_ C_ 0.998734 0.294726 0.610336 0.0
C_ C_ 0.717739 0.283773 0.613507 0.0
C_ C_ 0.746686 0.291779 0.639932 0.0
C_ C_ 0.721104 0.307109 0.664044 0.0
C_ C_ 0.00327863 0.318029 0.661023 0.0
C_ C_ 0.975938 0.31379 0.633871 0.0
C_ C_ 0.746357 0.329403 0.685137 0.0
C_ C_ 0.999445 0.346676 0.68031 0.0
C_ C_ 0.763715 0.407225 0.760949 0.0
C_ C_ 0.749875 0.37753 0.742992 0.0
C_ C_ 0.725461 0.382198 0.715202 0.0
C_ C_ 0.713699 0.416644 0.706373 0.0
C_ C_ 0.727456 0.445648 0.725242 0.0
N_ N_ 0.852935 0.219087 0.566102 0.0
N_ N_ 0.783611 0.142872 0.626543 0.0
N_ N_ 0.711527 0.101806 0.55365 0.0
N_ N_ 0.754235 0.190701 0.4986 0.0
N_ N_ 0.813732 0.030913 0.816102 0.0
N_ N_ 0.883056 0.107128 0.876543 0.0
N_ N_ 0.95514 0.148194 0.80365 0.0
N_ N_ 0.912431 0.0592986 0.7486 0.0
N_ N_ 0.813732 0.280913 0.933898 0.0
N_ N_ 0.883056 0.357128 0.873457 0.0
N_ N_ 0.95514 0.398194 0.94635 0.0
N_ N_ 0.912431 0.309299 0.00139979 0.0
N_ N_ 0.852935 0.469087 0.683898 0.0
N_ N_ 0.783611 0.392872 0.623457 0.0
N_ N_ 0.711527 0.351806 0.69635 0.0
N_ N_ 0.754235 0.440701 0.7514 0.0
O_ O_ 0.79885 0.0149975 0.717173 0.0
O_ O_ 0.743984 0.0344756 0.750578 0.0
O_ O_ 0.695457 0.155721 0.634274 0.0
O_ O_ 0.865986 0.120132 0.63586 0.0
O_ O_ 0.925653 0.0510577 0.672831 0.0
O_ O_ 0.978891 0.0105991 0.684197 0.0
O_ O_ 0.95354 0.105994 0.559287 0.0
O_ O_ 0.78749 0.0699826 0.549288 0.0
O_ O_ 0.867816 0.235003 0.967173 0.0
O_ O_ 0.922682 0.215524 0.500578 0.0
O_ O_ 0.97121 0.094279 0.884274 0.0
O_ O_ 0.80068 0.129868 0.88586 0.0
O_ O_ 0.741013 0.198942 0.922831 0.0
O_ O_ 0.687776 0.239401 0.934197 0.0
O_ O_ 0.713127 0.144006 0.809287 0.0
O_ O_ 0.879177 0.180017 0.799288 0.0
O_ O_ 0.867816 0.485003 0.782827 0.0
O_ O_ 0.922682 0.465524 0.749422 0.0
O_ O_ 0.97121 0.344279 0.865726 0.0
O_ O_ 0.80068 0.379868 0.86414 0.0
O_ O_ 0.741013 0.448942 0.827169 0.0
O_ O_ 0.687776 0.489401 0.815803 0.0
O_ O_ 0.713127 0.394006 0.940713 0.0
O_ O_ 0.879177 0.430017 0.950712 0.0
O_ O_ 0.79885 0.264997 0.532827 0.0
O_ O_ 0.743984 0.284476 0.999422 0.0
O_ O_ 0.695457 0.405721 0.615726 0.0
O_ O_ 0.865986 0.370132 0.61414 0.0
O_ O_ 0.925653 0.301058 0.577169 0.0
O_ O_ 0.978891 0.260599 0.565803 0.0
O_ O_ 0.95354 0.355994 0.690713 0.0
O_ O_ 0.78749 0.319983 0.700712 0.0
Cd Cd 0.896835 0.511719 0.21467 0.0
Cd Cd 0.769832 0.738281 0.46467 0.0
Cd Cd 0.769832 0.988281 0.28533 0.0
Cd Cd 0.896835 0.761719 0.0353296 0.0
H_ H_ 0.684627 0.579745 0.225897 0.0
H_ H_ 0.00143727 0.629013 0.190298 0.0
H_ H_ 0.832225 0.565178 0.179747 0.0
H_ H_ 0.833728 0.758413 0.0976618 0.0
H_ H_ 0.78881 0.714791 0.132561 0.0
H_ H_ 0.832514 0.629969 0.0743557 0.0
H_ H_ 0.872183 0.675225 0.0391002 0.0
H_ H_ 0.736312 0.52026 0.154784 0.0
H_ H_ 0.788447 0.536785 0.108694 0.0
H_ H_ 0.937697 0.574876 0.118937 0.0
H_ H_ 0.778699 0.653364 0.46672 0.0
H_ H_ 0.756465 0.600974 0.998905 0.0
H_ H_ 0.693888 0.670902 0.0648075 0.0
H_ H_ 0.714938 0.721767 0.0303887 0.0
H_ H_ 0.98204 0.670255 0.475897 0.0
H_ H_ 0.665229 0.620987 0.440298 0.0
H_ H_ 0.834442 0.684822 0.429747 0.0
H_ H_ 0.832939 0.991587 0.347662 0.0
H_ H_ 0.877857 0.535209 0.382561 0.0
H_ H_ 0.834153 0.620031 0.324356 0.0
H_ H_ 0.794483 0.574775 0.2891 0.0
H_ H_ 0.930355 0.72974 0.404784 0.0
H_ H_ 0.87822 0.713215 0.358694 0.0
H_ H_ 0.728969 0.675124 0.368937 0.0
H_ H_ 0.887968 0.596636 0.21672 0.0
H_ H_ 0.910202 0.649026 0.248905 0.0
H_ H_ 0.972779 0.579098 0.314808 0.0
H_ H_ 0.951728 0.528233 0.280389 0.0
H_ H_ 0.98204 0.920255 0.274103 0.0
H_ H_ 0.665229 0.870987 0.309702 0.0
H_ H_ 0.834442 0.934822 0.320253 0.0
H_ H_ 0.832939 0.741587 0.402338 0.0
H_ H_ 0.877857 0.785209 0.367439 0.0
H_ H_ 0.834153 0.870031 0.425644 0.0
H_ H_ 0.794483 0.824775 0.4609 0.0
H_ H_ 0.930355 0.97974 0.345216 0.0
H_ H_ 0.87822 0.963215 0.391306 0.0
H_ H_ 0.728969 0.925124 0.381063 0.0
H_ H_ 0.887968 0.846636 0.0332805 0.0
H_ H_ 0.910202 0.899026 0.501095 0.0
H_ H_ 0.972779 0.829098 0.435192 0.0
H_ H_ 0.951728 0.778233 0.469611 0.0
H_ H_ 0.684627 0.829745 0.0241033 0.0
H_ H_ 0.00143726 0.879013 0.0597022 0.0
H_ H_ 0.832225 0.815178 0.0702528 0.0
H_ H_ 0.833728 0.508413 0.152338 0.0
H_ H_ 0.78881 0.964791 0.117439 0.0
H_ H_ 0.832514 0.879969 0.175644 0.0
H_ H_ 0.872183 0.925225 0.2109 0.0
H_ H_ 0.736312 0.77026 0.0952161 0.0
H_ H_ 0.788447 0.786785 0.141306 0.0
H_ H_ 0.937697 0.824876 0.131063 0.0
H_ H_ 0.778699 0.903364 0.28328 0.0
H_ H_ 0.756465 0.850974 0.251095 0.0
H_ H_ 0.693888 0.920902 0.185192 0.0
H_ H_ 0.714938 0.971767 0.219611 0.0
C_ C_ 0.772014 0.539998 0.227052 0.0
C_ C_ 0.762653 0.570771 0.207483 0.0
C_ C_ 0.715187 0.588822 0.210019 0.0
C_ C_ 0.706251 0.617352 0.190542 0.0
C_ C_ 0.747771 0.63051 0.171853 0.0
C_ C_ 0.794133 0.613273 0.169669 0.0
C_ C_ 0.800068 0.581574 0.185219 0.0
C_ C_ 0.814769 0.620719 0.141473 0.0
C_ C_ 0.742217 0.648598 0.145016 0.0
C_ C_ 0.830943 0.730298 0.0920919 0.0
C_ C_ 0.80574 0.705623 0.111814 0.0
C_ C_ 0.804812 0.669032 0.105206 0.0
C_ C_ 0.829843 0.658066 0.0790275 0.0
C_ C_ 0.853144 0.683656 0.0593936 0.0
C_ C_ 0.968039 0.53623 0.167278 0.0
C_ C_ 0.998734 0.544726 0.139664 0.0
C_ C_ 0.717739 0.533773 0.136493 0.0
C_ C_ 0.746686 0.541779 0.110068 0.0
C_ C_ 0.721104 0.557109 0.0859562 0.0
C_ C_ 0.00327863 0.568029 0.0889766 0.0
C_ C_ 0.975938 0.56379 0.116129 0.0
C_ C_ 0.746357 0.579403 0.0648629 0.0
C_ C_ 0.999445 0.596676 0.0696897 0.0
C_ C_ 0.763715 0.657225 0.489051 0.0
C_ C_ 0.749875 0.62753 0.00700845 0.0
C_ C_ 0.725461 0.632198 0.0347975 0.0
C_ C_ 0.713699 0.666644 0.0436273 0.0
C_ C_ 0.727456 0.695648 0.0247575 0.0
C_ C_ 0.894653 0.710002 0.477052 0.0
C_ C_ 0.904014 0.679229 0.457483 0.0
C_ C_ 0.95148 0.661178 0.460019 0.0
C_ C_ 0.960415 0.632648 0.440542 0.0
C_ C_ 0.918896 0.61949 0.421853 0.0
C_ C_ 0.872534 0.636727 0.419669 0.0
C_ C_ 0.866599 0.668426 0.435219 0.0
C_ C_ 0.851898 0.629281 0.391473 0.0
C_ C_ 0.924449 0.601402 0.395016 0.0
C_ C_ 0.835724 0.519702 0.342092 0.0
C_ C_ 0.860926 0.544377 0.361814 0.0
C_ C_ 0.861855 0.580968 0.355206 0.0
C_ C_ 0.836823 0.591934 0.329027 0.0
C_ C_ 0.813523 0.566344 0.309394 0.0
C_ C_ 0.698628 0.71377 0.417278 0.0
C_ C_ 0.667933 0.705274 0.389664 0.0
C_ C_ 0.948927 0.716227 0.386493 0.0
C_ C_ 0.91998 0.708221 0.360068 0.0
C_ C_ 0.945562 0.692891 0.335956 0.0
C_ C_ 0.663388 0.681971 0.338977 0.0
C_ C_ 0.690729 0.68621 0.366129 0.0
C_ C_ 0.92031 0.670597 0.314863 0.0
C_ C_ 0.667221 0.653324 0.31969 0.0
C_ C_ 0.902952 0.592775 0.239051 0.0
C_ C_ 0.916792 0.62247 0.257008 0.0
C_ C_ 0.941206 0.617802 0.284798 0.0
C_ C_ 0.952968 0.583356 0.293627 0.0
C_ C_ 0.93921 0.554352 0.274758 0.0
C_ C_ 0.894653 0.960002 0.272948 0.0
C_ C_ 0.904014 0.929229 0.292517 0.0
C_ C_ 0.95148 0.911178 0.289981 0.0
C_ C_ 0.960415 0.882648 0.309458 0.0
C_ C_ 0.918896 0.86949 0.328147 0.0
C_ C_ 0.872534 0.886727 0.330331 0.0
C_ C_ 0.866599 0.918426 0.314781 0.0
C_ C_ 0.851898 0.879281 0.358527 0.0
C_ C_ 0.924449 0.851402 0.354984 0.0
C_ C_ 0.835724 0.769702 0.407908 0.0
C_ C_ 0.860926 0.794377 0.388186 0.0
C_ C_ 0.861855 0.830968 0.394794 0.0
C_ C_ 0.836823 0.841934 0.420973 0.0
C_ C_ 0.813523 0.816344 0.440606 0.0
C_ C_ 0.698628 0.96377 0.332722 0.0
C_ C_ 0.667933 0.955274 0.360336 0.0
C_ C_ 0.948927 0.966227 0.363507 0.0
C_ C_ 0.91998 0.958221 0.389932 0.0
C_ C_ 0.945562 0.942891 0.414044 0.0
C_ C_ 0.663388 0.931971 0.411023 0.0
C_ C_ 0.690729 0.93621 0.383871 0.0
C_ C_ 0.92031 0.920597 0.435137 0.0
C_ C_ 0.667221 0.903324 0.43031 0.0
C_ C_ 0.902952 0.842775 0.010949 0.0
C_ C_ 0.916792 0.87247 0.492992 0.0
C_ C_ 0.941206 0.867802 0.465202 0.0
C_ C_ 0.952968 0.833356 0.456373 0.0
C_ C_ 0.93921 0.804352 0.475242 0.0
C_ C_ 0.772014 0.789998 0.0229477 0.0
C_ C_ 0.762653 0.820771 0.0425173 0.0
C_ C_ 0.715187 0.838822 0.0399812 0.0
C_ C_ 0.706251 0.867352 0.0594584 0.0
C_ C_ 0.747771 0.88051 0.0781469 0.0
C_ C_ 0.794133 0.863273 0.0803307 0.0
C_ C_ 0.800068 0.831574 0.0647812 0.0
C_ C_ 0.814769 0.870719 0.108527 0.0
C_ C_ 0.742217 0.898598 0.104984 0.0
C_ C_ 0.830943 0.980298 0.157908 0.0
C_ C_ 0.80574 0.955623 0.138186 0.0
C_ C_ 0.804812 0.919032 0.144794 0.0
C_ C_ 0.829843 0.908066 0.170973 0.0
C_ C_ 0.853144 0.933656 0.190606 0.0
C_ C_ 0.968039 0.78623 0.0827219 0.0
C_ C_ 0.998734 0.794726 0.110336 0.0
C_ C_ 0.717739 0.783773 0.113507 0.0
C_ C_ 0.746686 0.791779 0.139932 0.0
C_ C_ 0.721104 0.807109 0.164044 0.0
C_ C_ 0.00327862 0.818029 0.161023 0.0
C_ C_ 0.975938 0.81379 0.133871 0.0
C_ C_ 0.746357 0.829403 0.185137 0.0
C_ C_ 0.999445 0.846676 0.18031 0.0
C_ C_ 0.763715 0.907225 0.260949 0.0
C_ C_ 0.749875 0.87753 0.242992 0.0
C_ C_ 0.725461 0.882198 0.215202 0.0
C_ C_ 0.713699 0.916644 0.206373 0.0
C_ C_ 0.727456 0.945648 0.225242 0.0
N_ N_ 0.852935 0.719087 0.066102 0.0
N_ N_ 0.783611 0.642872 0.126543 0.0
N_ N_ 0.711527 0.601806 0.0536496 0.0
N_ N_ 0.754235 0.690701 0.9986 0.0
N_ N_ 0.813732 0.530913 0.316102 0.0
N_ N_ 0.883056 0.607128 0.376543 0.0
N_ N_ 0.95514 0.648194 0.30365 0.0
N_ N_ 0.912431 0.559299 0.2486 0.0
N_ N_ 0.813732 0.780913 0.433898 0.0
N_ N_ 0.883056 0.857128 0.373457 0.0
N_ N_ 0.95514 0.898194 0.44635 0.0
N_ N_ 0.912431 0.809299 0.5014 0.0
N_ N_ 0.852935 0.969087 0.183898 0.0
N_ N_ 0.783611 0.892872 0.123457 0.0
N_ N_ 0.711527 0.851806 0.19635 0.0
N_ N_ 0.754235 0.940701 0.2514 0.0
O_ O_ 0.79885 0.514997 0.217173 0.0
O_ O_ 0.743984 0.534476 0.250578 0.0
O_ O_ 0.695457 0.655721 0.134274 0.0
O_ O_ 0.865986 0.620132 0.13586 0.0
O_ O_ 0.925653 0.551058 0.172831 0.0
O_ O_ 0.978891 0.510599 0.184197 0.0
O_ O_ 0.95354 0.605994 0.059287 0.0
O_ O_ 0.78749 0.569983 0.0492879 0.0
O_ O_ 0.867816 0.735003 0.467173 0.0
O_ O_ 0.922682 0.715524 0.000578323 0.0
O_ O_ 0.97121 0.594279 0.384274 0.0
O_ O_ 0.80068 0.629868 0.38586 0.0
O_ O_ 0.741013 0.698942 0.422831 0.0
O_ O_ 0.687776 0.739401 0.434197 0.0
O_ O_ 0.713127 0.644007 0.309287 0.0
O_ O_ 0.879177 0.680017 0.299288 0.0
O_ O_ 0.867816 0.985003 0.282827 0.0
O_ O_ 0.922682 0.965524 0.249422 0.0
O_ O_ 0.97121 0.844279 0.365726 0.0
O_ O_ 0.80068 0.879868 0.36414 0.0
O_ O_ 0.741013 0.948942 0.327169 0.0
O_ O_ 0.687776 0.989401 0.315803 0.0
O_ O_ 0.713127 0.894007 0.440713 0.0
O_ O_ 0.879177 0.930017 0.450712 0.0
O_ O_ 0.79885 0.764997 0.032827 0.0
O_ O_ 0.743984 0.784476 0.499422 0.0
O_ O_ 0.695457 0.905721 0.115726 0.0
O_ O_ 0.865986 0.870132 0.11414 0.0
O_ O_ 0.925653 0.801058 0.0771694 0.0
O_ O_ 0.978891 0.760599 0.0658027 0.0
O_ O_ 0.95354 0.855994 0.190713 0.0
O_ O_ 0.78749 0.819983 0.200712 0.0
Cd Cd 0.896835 0.511719 0.71467 0.0
Cd Cd 0.769832 0.738281 0.96467 0.0
Cd Cd 0.769832 0.988281 0.78533 0.0
Cd Cd 0.896835 0.761719 0.53533 0.0
H_ H_ 0.684627 0.579745 0.725897 0.0
H_ H_ 0.00143727 0.629013 0.690298 0.0
H_ H_ 0.832225 0.565178 0.679747 0.0
H_ H_ 0.833728 0.758413 0.597662 0.0
H_ H_ 0.78881 0.714791 0.632561 0.0
H_ H_ 0.832514 0.629969 0.574356 0.0
H_ H_ 0.872183 0.675225 0.5391 0.0
H_ H_ 0.736312 0.52026 0.654784 0.0
H_ H_ 0.788447 0.536785 0.608694 0.0
H_ H_ 0.937697 0.574876 0.618937 0.0
H_ H_ 0.778699 0.653364 0.96672 0.0
H_ H_ 0.756465 0.600974 0.498905 0.0
H_ H_ 0.693888 0.670902 0.564808 0.0
H_ H_ 0.714938 0.721767 0.530389 0.0
H_ H_ 0.98204 0.670255 0.975897 0.0
H_ H_ 0.665229 0.620987 0.940298 0.0
H_ H_ 0.834442 0.684822 0.929747 0.0
H_ H_ 0.832939 0.991587 0.847662 0.0
H_ H_ 0.877857 0.535209 0.882561 0.0
H_ H_ 0.834153 0.620031 0.824356 0.0
H_ H_ 0.794483 0.574775 0.7891 0.0
H_ H_ 0.930355 0.72974 0.904784 0.0
H_ H_ 0.87822 0.713215 0.858694 0.0
H_ H_ 0.728969 0.675124 0.868937 0.0
H_ H_ 0.887968 0.596636 0.71672 0.0
H_ H_ 0.910202 0.649026 0.748905 0.0
H_ H_ 0.972779 0.579098 0.814808 0.0
H_ H_ 0.951728 0.528233 0.780389 0.0
H_ H_ 0.98204 0.920255 0.774103 0.0
H_ H_ 0.665229 0.870987 0.809702 0.0
H_ H_ 0.834442 0.934822 0.820253 0.0
H_ H_ 0.832939 0.741587 0.902338 0.0
H_ H_ 0.877857 0.785209 0.867439 0.0
H_ H_ 0.834153 0.870031 0.925644 0.0
H_ H_ 0.794483 0.824775 0.9609 0.0
H_ H_ 0.930355 0.97974 0.845216 0.0
H_ H_ 0.87822 0.963215 0.891306 0.0
H_ H_ 0.728969 0.925124 0.881063 0.0
H_ H_ 0.887968 0.846636 0.53328 0.0
H_ H_ 0.910202 0.899026 0.00109454 0.0
H_ H_ 0.972779 0.829098 0.935192 0.0
H_ H_ 0.951728 0.778233 0.969611 0.0
H_ H_ 0.684627 0.829745 0.524103 0.0
H_ H_ 0.00143726 0.879013 0.559702 0.0
H_ H_ 0.832225 0.815178 0.570253 0.0
H_ H_ 0.833728 0.508413 0.652338 0.0
H_ H_ 0.78881 0.964791 0.617439 0.0
H_ H_ 0.832514 0.879969 0.675644 0.0
H_ H_ 0.872183 0.925225 0.7109 0.0
H_ H_ 0.736312 0.77026 0.595216 0.0
H_ H_ 0.788447 0.786785 0.641306 0.0
H_ H_ 0.937697 0.824876 0.631063 0.0
H_ H_ 0.778699 0.903364 0.78328 0.0
H_ H_ 0.756465 0.850974 0.751095 0.0
H_ H_ 0.693888 0.920902 0.685192 0.0
H_ H_ 0.714938 0.971767 0.719611 0.0
C_ C_ 0.772014 0.539998 0.727052 0.0
C_ C_ 0.762653 0.570771 0.707483 0.0
C_ C_ 0.715187 0.588822 0.710019 0.0
C_ C_ 0.706251 0.617352 0.690542 0.0
C_ C_ 0.747771 0.63051 0.671853 0.0
C_ C_ 0.794133 0.613273 0.669669 0.0
C_ C_ 0.800068 0.581574 0.685219 0.0
C_ C_ 0.814769 0.620719 0.641473 0.0
C_ C_ 0.742217 0.648598 0.645016 0.0
C_ C_ 0.830943 0.730298 0.592092 0.0
C_ C_ 0.80574 0.705623 0.611814 0.0
C_ C_ 0.804812 0.669032 0.605206 0.0
C_ C_ 0.829843 0.658066 0.579027 0.0
C_ C_ 0.853144 0.683656 0.559394 0.0
C_ C_ 0.968039 0.53623 0.667278 0.0
C_ C_ 0.998734 0.544726 0.639664 0.0
C_ C_ 0.717739 0.533773 0.636493 0.0
C_ C_ 0.746686 0.541779 0.610068 0.0
C_ C_ 0.721104 0.557109 0.585956 0.0
C_ C_ 0.00327863 0.568029 0.588977 0.0
C_ C_ 0.975938 0.56379 0.616129 0.0
C_ C_ 0.746357 0.579403 0.564863 0.0
C_ C_ 0.999445 0.596676 0.56969 0.0
C_ C_ 0.763715 0.657225 0.989051 0.0
C_ C_ 0.749875 0.62753 0.507008 0.0
C_ C_ 0.725461 0.632198 0.534798 0.0
C_ C_ 0.713699 0.666644 0.543627 0.0
C_ C_ 0.727456 0.695648 0.524758 0.0
C_ C_ 0.894653 0.710002 0.977052 0.0
C_ C_ 0.904014 0.679229 0.957483 0.0
C_ C_ 0.95148 0.661178 0.960019 0.0
C_ C_ 0.960415 0.632648 0.940542 0.0
C_ C_ 0.918896 0.61949 0.921853 0.0
C_ C_ 0.872534 0.636727 0.919669 0.0
C_ C_ 0.866599 0.668426 0.935219 0.0
C_ C_ 0.851898 0.629281 0.891473 0.0
C_ C_ 0.924449 0.601402 0.895016 0.0
C_ C_ 0.835724 0.519702 0.842092 0.0
C_ C_ 0.860926 0.544377 0.861814 0.0
C_ C_ 0.861855 0.580968 0.855206 0.0
C_ C_ 0.836823 0.591934 0.829027 0.0
C_ C_ 0.813523 0.566344 0.809394 0.0
C_ C_ 0.698628 0.71377 0.917278 0.0
C_ C_ 0.667933 0.705274 0.889664 0.0
C_ C_ 0.948927 0.716227 0.886493 0.0
C_ C_ 0.91998 0.708221 0.860068 0.0
C_ C_ 0.945562 0.692891 0.835956 0.0
C_ C_ 0.663388 0.681971 0.838977 0.0
C_ C_ 0.690729 0.68621 0.866129 0.0
C_ C_ 0.92031 0.670597 0.814863 0.0
C_ C_ 0.667221 0.653324 0.81969 0.0
C_ C_ 0.902952 0.592775 0.739051 0.0
C_ C_ 0.916792 0.62247 0.757008 0.0
C_ C_ 0.941206 0.617802 0.784798 0.0
C_ C_ 0.952968 0.583356 0.793627 0.0
C_ C_ 0.93921 0.554352 0.774758 0.0
C_ C_ 0.894653 0.960002 0.772948 0.0
C_ C_ 0.904014 0.929229 0.792517 0.0
C_ C_ 0.95148 0.911178 0.789981 0.0
C_ C_ 0.960415 0.882648 0.809458 0.0
C_ C_ 0.918896 0.86949 0.828147 0.0
C_ C_ 0.872534 0.886727 0.830331 0.0
C_ C_ 0.866599 0.918426 0.814781 0.0
C_ C_ 0.851898 0.879281 0.858527 0.0
C_ C_ 0.924449 0.851402 0.854984 0.0
C_ C_ 0.835724 0.769702 0.907908 0.0
C_ C_ 0.860926 0.794377 0.888186 0.0
C_ C_ 0.861855 0.830968 0.894794 0.0
C_ C_ 0.836823 0.841934 0.920973 0.0
C_ C_ 0.813523 0.816344 0.940606 0.0
C_ C_ 0.698628 0.96377 0.832722 0.0
C_ C_ 0.667933 0.955274 0.860336 0.0
C_ C_ 0.948927 0.966227 0.863507 0.0
C_ C_ 0.91998 0.958221 0.889932 0.0
C_ C_ 0.945562 0.942891 0.914044 0.0
C_ C_ 0.663388 0.931971 0.911023 0.0
C_ C_ 0.690729 0.93621 0.883871 0.0
C_ C_ 0.92031 0.920597 0.935137 0.0
C_ C_ 0.667221 0.903324 0.93031 0.0
C_ C_ 0.902952 0.842775 0.510949 0.0
C_ C_ 0.916792 0.87247 0.992992 0.0
C_ C_ 0.941206 0.867802 0.965202 0.0
C_ C_ 0.952968 0.833356 0.956373 0.0
C_ C_ 0.93921 0.804352 0.975242 0.0
C_ C_ 0.772014 0.789998 0.522948 0.0
C_ C_ 0.762653 0.820771 0.542517 0.0
C_ C_ 0.715187 0.838822 0.539981 0.0
C_ C_ 0.706251 0.867352 0.559458 0.0
C_ C_ 0.747771 0.88051 0.578147 0.0
C_ C_ 0.794133 0.863273 0.580331 0.0
C_ C_ 0.800068 0.831574 0.564781 0.0
C_ C_ 0.814769 0.870719 0.608527 0.0
C_ C_ 0.742217 0.898598 0.604984 0.0
C_ C_ 0.830943 0.980298 0.657908 0.0
C_ C_ 0.80574 0.955623 0.638186 0.0
C_ C_ 0.804812 0.919032 0.644794 0.0
C_ C_ 0.829843 0.908066 0.670973 0.0
C_ C_ 0.853144 0.933656 0.690606 0.0
C_ C_ 0.968039 0.78623 0.582722 0.0
C_ C_ 0.998734 0.794726 0.610336 0.0
C_ C_ 0.717739 0.783773 0.613507 0.0
C_ C_ 0.746686 0.791779 0.639932 0.0
C_ C_ 0.721104 0.807109 0.664044 0.0
C_ C_ 0.00327862 0.818029 0.661023 0.0
C_ C_ 0.975938 0.81379 0.633871 0.0
C_ C_ 0.746357 0.829403 0.685137 0.0
C_ C_ 0.999445 0.846676 0.68031 0.0
C_ C_ 0.763715 0.907225 0.760949 0.0
C_ C_ 0.749875 0.87753 0.742992 0.0
C_ C_ 0.725461 0.882198 0.715202 0.0
C_ C_ 0.713699 0.916644 0.706373 0.0
C_ C_ 0.727456 0.945648 0.725242 0.0
N_ N_ 0.852935 0.719087 0.566102 0.0
N_ N_ 0.783611 0.642872 0.626543 0.0
N_ N_ 0.711527 0.601806 0.55365 0.0
N_ N_ 0.754235 0.690701 0.4986 0.0
N_ N_ 0.813732 0.530913 0.816102 0.0
N_ N_ 0.883056 0.607128 0.876543 0.0
N_ N_ 0.95514 0.648194 0.80365 0.0
N_ N_ 0.912431 0.559299 0.7486 0.0
N_ N_ 0.813732 0.780913 0.933898 0.0
N_ N_ 0.883056 0.857128 0.873457 0.0
N_ N_ 0.95514 0.898194 0.94635 0.0
N_ N_ 0.912431 0.809299 0.00139979 0.0
N_ N_ 0.852935 0.969087 0.683898 0.0
N_ N_ 0.783611 0.892872 0.623457 0.0
N_ N_ 0.711527 0.851806 0.69635 0.0
N_ N_ 0.754235 0.940701 0.7514 0.0
O_ O_ 0.79885 0.514997 0.717173 0.0
O_ O_ 0.743984 0.534476 0.750578 0.0
O_ O_ 0.695457 0.655721 0.634274 0.0
O_ O_ 0.865986 0.620132 0.63586 0.0
O_ O_ 0.925653 0.551058 0.672831 0.0
O_ O_ 0.978891 0.510599 0.684197 0.0
O_ O_ 0.95354 0.605994 0.559287 0.0
O_ O_ 0.78749 0.569983 0.549288 0.0
O_ O_ 0.867816 0.735003 0.967173 0.0
O_ O_ 0.922682 0.715524 0.500578 0.0
O_ O_ 0.97121 0.594279 0.884274 0.0
O_ O_ 0.80068 0.629868 0.88586 0.0
O_ O_ 0.741013 0.698942 0.922831 0.0
O_ O_ 0.687776 0.739401 0.934197 0.0
O_ O_ 0.713127 0.644007 0.809287 0.0
O_ O_ 0.879177 0.680017 0.799288 0.0
O_ O_ 0.867816 0.985003 0.782827 0.0
O_ O_ 0.922682 0.965524 0.749422 0.0
O_ O_ 0.97121 0.844279 0.865726 0.0
O_ O_ 0.80068 0.879868 0.86414 0.0
O_ O_ 0.741013 0.948942 0.827169 0.0
O_ O_ 0.687776 0.989401 0.815803 0.0
O_ O_ 0.713127 0.894007 0.940713 0.0
O_ O_ 0.879177 0.930017 0.950712 0.0
O_ O_ 0.79885 0.764997 0.532827 0.0
O_ O_ 0.743984 0.784476 0.999422 0.0
O_ O_ 0.695457 0.905721 0.615726 0.0
O_ O_ 0.865986 0.870132 0.61414 0.0
O_ O_ 0.925653 0.801058 0.577169 0.0
O_ O_ 0.978891 0.760599 0.565803 0.0
O_ O_ 0.95354 0.855994 0.690713 0.0
O_ O_ 0.78749 0.819983 0.700712 0.0
