_cell_length_a 25.179
_cell_length_b 37.484199844079754
_cell_length_c 44.4702
_cell_angle_alpha 90.0
_cell_angle_beta 90.0
_cell_angle_gamma 94.03100043039683
_symmetry_space_group_name_H-M         'P 1'
_symmetry_Int_Tables_number            1
loop_
_symmetry_equiv_pos_as_xyz
   'x, y, z'
                         
loop_
_atom_site_label
_atom_site_type_symbol
_atom_site_fract_x 
_atom_site_fract_y
_atom_site_fract_z
_atom_site_charge
Cd Cd 0.230576 0.0120357 0.20909 0.0
Cd Cd 0.100975 0.238685 0.463839 0.0
Cd Cd 0.104424 0.487782 0.284955 0.0
Cd Cd 0.231825 0.262648 0.0367652 0.0
H_ H_ 0.0240464 0.0862262 0.230844 0.0
H_ H_ 0.344092 0.137109 0.196507 0.0
H_ H_ 0.164955 0.061647 0.177815 0.0
H_ H_ 0.180493 0.266221 0.103225 0.0
H_ H_ 0.137688 0.227457 0.142022 0.0
H_ H_ 0.170026 0.138913 0.0816357 0.0
H_ H_ 0.20299 0.179926 0.0472213 0.0
H_ H_ 0.0651712 0.0113508 0.152056 0.0
H_ H_ 0.118194 0.0302931 0.107991 0.0
H_ H_ 0.268511 0.0758505 0.117238 0.0
H_ H_ 0.118471 0.157108 0.467008 0.0
H_ H_ 0.109857 0.106032 1.00574618 0.0
H_ H_ 0.0180275 0.166667 0.0623476 0.0
H_ H_ 0.0337092 0.219352 0.0284165 0.0
H_ H_ 0.318454 0.171154 0.475527 0.0
H_ H_ 0.995225 0.116928 0.443814 0.0
H_ H_ 0.168959 0.185746 0.426944 0.0
H_ H_ 0.162418 0.480954 0.350712 0.0
H_ H_ 0.21002 0.0333394 0.385528 0.0
H_ H_ 0.174122 0.119719 0.324594 0.0
H_ H_ 0.13205 0.0751887 0.292554 0.0
H_ H_ 0.271463 0.232257 0.393698 0.0
H_ H_ 0.215567 0.211437 0.349257 0.0
H_ H_ 0.0633733 0.173023 0.367889 0.0
H_ H_ 0.211171 0.0955598 0.212796 0.0
H_ H_ 0.252961 0.150307 0.237709 0.0
H_ H_ 0.306187 0.07822 0.304884 0.0
H_ H_ 0.294124 0.0291082 0.269471 0.0
H_ H_ 0.304131 0.411575 0.265576 0.0
H_ H_ 0.99504013 0.366977 0.305822 0.0
H_ H_ 0.165479 0.435475 0.316392 0.0
H_ H_ 0.1456 0.323489 0.464239 0.0
H_ H_ 0.191916 0.366509 0.430326 0.0
H_ H_ 0.177411 0.291145 0.359965 0.0
H_ H_ 0.142324 0.244903 0.395579 0.0
H_ H_ 0.273208 0.48897 0.354835 0.0
H_ H_ 0.24018 0.478438 0.406993 0.0
H_ H_ 0.0649418 0.426694 0.381282 0.0
H_ H_ 0.203823 0.345612 0.0254618 0.0
H_ H_ 0.28331 0.402532 0.502949 0.0
H_ H_ 0.308195 0.327702 0.433978 0.0
H_ H_ 0.287488 0.281266 0.471992 0.0
H_ H_ 0.0187518 0.332766 0.0241145 0.0
H_ H_ 0.341605 0.385158 0.0540935 0.0
H_ H_ 0.169018 0.317273 0.0682736 0.0
H_ H_ 0.198162 0.0163785 0.139604 0.0
H_ H_ 0.132256 0.475119 0.110925 0.0
H_ H_ 0.156872 0.389872 0.171461 0.0
H_ H_ 0.196024 0.43217 0.205767 0.0
H_ H_ 0.0680255 0.273271 0.0931438 0.0
H_ H_ 0.123042 0.294483 0.138017 0.0
H_ H_ 0.272302 0.326986 0.130072 0.0
H_ H_ 0.123232 0.404063 0.281475 0.0
H_ H_ 0.102345 0.353203 0.244955 0.0
H_ H_ 0.0416327 0.422754 0.180712 0.0
H_ H_ 0.0598028 0.473804 0.215951 0.0
C_ C_ 0.106522 0.0409901 0.226252 0.0
C_ C_ 0.093644 0.0695803 0.204716 0.0
C_ C_ 0.0489141 0.0902865 0.210445 0.0
C_ C_ 0.0356629 0.115166 0.187432 0.0
C_ C_ 0.0656283 0.116889 0.161627 0.0
C_ C_ 0.113459 0.10029 0.159917 0.0
C_ C_ 0.126905 0.0760356 0.180152 0.0
C_ C_ 0.149107 0.122835 0.144038 0.0
C_ C_ 0.0764473 0.149914 0.148369 0.0
C_ C_ 0.178663 0.238014 0.0997454 0.0
C_ C_ 0.152984 0.215111 0.12093 0.0
C_ C_ 0.14484 0.177879 0.114484 0.0
C_ C_ 0.166328 0.165734 0.0877242 0.0
C_ C_ 0.187608 0.189234 0.0668473 0.0
C_ C_ 0.302568 0.0307945 0.162397 0.0
C_ C_ 0.326593 0.0369293 0.132307 0.0
C_ C_ 0.0481696 0.0295384 0.135219 0.0
C_ C_ 0.0768215 0.0386021 0.10941 0.0
C_ C_ 0.0519135 0.0547926 0.0856149 0.0
C_ C_ 0.32331 0.0645999 0.0830572 0.0
C_ C_ 0.302747 0.0609458 0.112224 0.0
C_ C_ 0.0770065 0.0758925 0.0642295 0.0
C_ C_ 0.321137 0.0962928 0.0670964 0.0
C_ C_ 0.0949862 0.160194 0.487562 0.0
C_ C_ 0.0910735 0.129199 0.0102517 0.0
C_ C_ 0.0621985 0.132009 0.0357185 0.0
C_ C_ 0.0449763 0.165353 0.0438019 0.0
C_ C_ 0.0566342 0.194827 0.0259979 0.0
C_ C_ 0.228957 0.213814 0.474594 0.0
C_ C_ 0.239432 0.183953 0.455114 0.0
C_ C_ 0.288666 0.165107 0.45894 0.0
C_ C_ 0.296457 0.134989 0.440884 0.0
C_ C_ 0.257489 0.123189 0.42091 0.0
C_ C_ 0.209822 0.13773 0.420183 0.0
C_ C_ 0.204496 0.171987 0.43202 0.0
C_ C_ 0.183761 0.125795 0.395121 0.0
C_ C_ 0.260071 0.103667 0.395331 0.0
C_ C_ 0.167904 0.0192837 0.344392 0.0
C_ C_ 0.194078 0.0422727 0.364053 0.0
C_ C_ 0.193471 0.0796475 0.357647 0.0
C_ C_ 0.171493 0.091825 0.330607 0.0
C_ C_ 0.149606 0.0659661 0.311507 0.0
C_ C_ 0.0294171 0.209266 0.418699 0.0
C_ C_ 0.00148574 0.204767 0.390045 0.0
C_ C_ 0.288437 0.216786 0.376402 0.0
C_ C_ 0.25684 0.204406 0.35135 0.0
C_ C_ 0.276425 0.176315 0.334141 0.0
C_ C_ 0.996374 0.181417 0.339708 0.0
C_ C_ 0.0253497 0.185576 0.365711 0.0
C_ C_ 0.261848 0.167222 0.306012 0.0
C_ C_ 0.000372116 0.153167 0.319763 0.0
C_ C_ 0.237964 0.0927532 0.231027 0.0
C_ C_ 0.256518 0.123389 0.246764 0.0
C_ C_ 0.286378 0.119043 0.272777 0.0
C_ C_ 0.293169 0.083357 0.283397 0.0
C_ C_ 0.277948 0.054526 0.265003 0.0
C_ C_ 0.226975 0.459586 0.269226 0.0
C_ C_ 0.233785 0.428001 0.288621 0.0
C_ C_ 0.277264 0.405699 0.284004 0.0
C_ C_ 0.28951 0.381168 0.305681 0.0
C_ C_ 0.262168 0.381267 0.333857 0.0
C_ C_ 0.220698 0.402368 0.338773 0.0
C_ C_ 0.20277 0.422314 0.314637 0.0
C_ C_ 0.189962 0.38662 0.361901 0.0
C_ C_ 0.254346 0.35223 0.353053 0.0
C_ C_ 0.154287 0.315 0.441205 0.0
C_ C_ 0.175086 0.340343 0.422438 0.0
C_ C_ 0.187181 0.33099 0.392534 0.0
C_ C_ 0.167202 0.29888 0.381109 0.0
C_ C_ 0.148772 0.272555 0.402487 0.0
C_ C_ 0.0293162 0.461473 0.330263 0.0
C_ C_ 0.0029200000000000337 0.45637 0.359956 0.0
C_ C_ 0.298789 0.477216 0.370994 0.0
C_ C_ 0.279248 0.470929 0.40074 0.0
C_ C_ 0.307582 0.450406 0.420885 0.0
C_ C_ 0.996912 0.430814 0.410072 0.0
C_ C_ 0.0259004 0.435927 0.383018 0.0
C_ C_ 0.283173 0.428954 0.442445 0.0
C_ C_ 0.00231264 0.403142 0.430808 0.0
C_ C_ 0.224322 0.340417 0.00455227 0.0
C_ C_ 0.274449 0.377264 0.494992 0.0
C_ C_ 0.289774 0.369086 0.467166 0.0
C_ C_ 0.294576 0.333585 0.458041 0.0
C_ C_ 0.275605 0.30601 0.476668 0.0
C_ C_ 0.10547 0.291265 0.0233362 0.0
C_ C_ 0.0949362 0.321133 0.0440494 0.0
C_ C_ 0.0493242 0.339251 0.041461 0.0
C_ C_ 0.0377139 0.365876 0.062899 0.0
C_ C_ 0.0693028 0.368885 0.0889541 0.0
C_ C_ 0.11796 0.352812 0.0896528 0.0
C_ C_ 0.129549 0.328754 0.0686712 0.0
C_ C_ 0.153281 0.374296 0.106796 0.0
C_ C_ 0.075867 0.397743 0.1079 0.0
C_ C_ 0.178885 0.488068 0.150754 0.0
C_ C_ 0.154654 0.464859 0.130342 0.0
C_ C_ 0.148555 0.429027 0.137329 0.0
C_ C_ 0.159156 0.417782 0.166458 0.0
C_ C_ 0.185352 0.441697 0.185803 0.0
C_ C_ 0.306955 0.28764 0.0829912 0.0
C_ C_ 0.336253 0.298183 0.110656 0.0
C_ C_ 0.0487021 0.283944 0.113353 0.0
C_ C_ 0.0801421 0.295945 0.137494 0.0
C_ C_ 0.0549558 0.30832 0.162158 0.0
C_ C_ 0.334907 0.319608 0.162896 0.0
C_ C_ 0.310908 0.317509 0.134092 0.0
C_ C_ 0.0799521 0.329463 0.183817 0.0
C_ C_ 0.328318 0.347068 0.183564 0.0
C_ C_ 0.10422 0.40896 0.258287 0.0
C_ C_ 0.0909352 0.379451 0.239001 0.0
C_ C_ 0.0607951 0.384455 0.213293 0.0
C_ C_ 0.0528749 0.417243 0.204019 0.0
C_ C_ 0.0657505 0.446279 0.223526 0.0
N_ N_ 0.191852 0.224702 0.0720324 0.0
N_ N_ 0.127236 0.153327 0.137936 0.0
N_ N_ 0.0442492 0.100435 0.0531317 0.0
N_ N_ 0.0854681 0.192139 1.00022 0.0
N_ N_ 0.147334 0.0305211 0.31766 0.0
N_ N_ 0.215088 0.104773 0.37881 0.0
N_ N_ 0.300295 0.149344 0.292019 0.0
N_ N_ 0.249332 0.0598735 0.239637 0.0
N_ N_ 0.138735 0.281931 0.431134 0.0
N_ N_ 0.211952 0.35717 0.371318 0.0
N_ N_ 0.306065 0.397473 0.445582 0.0
N_ N_ 0.250375 0.313067 0.503106 0.0
N_ N_ 0.195584 0.475628 0.177338 0.0
N_ N_ 0.127294 0.403485 0.1161 0.0
N_ N_ 0.0448466 0.35239 0.195762 0.0
N_ N_ 0.0899972 0.441024 0.249811 0.0
O_ O_ 0.129774 0.0148486 0.216039 0.0
O_ O_ 0.0836624 0.0370574 0.251205 0.0
O_ O_ 0.0390963 0.168955 0.136415 0.0
O_ O_ 0.201009 0.121004 0.149421 0.0
O_ O_ 0.267705 0.0503922 0.171461 0.0
O_ O_ 0.30532 0.00187502 0.175705 0.0
O_ O_ 0.275948 0.111991 0.0606697 0.0
O_ O_ 0.128129 0.0816418 0.0631058 0.0
O_ O_ 0.200819 0.238971 0.464996 0.0
O_ O_ 0.252385 0.216003 0.0029825 0.0
O_ O_ 0.304779 0.0992644 0.381596 0.0
O_ O_ 0.139174 0.138452 0.384049 0.0
O_ O_ 0.0765846 0.199558 0.420015 0.0
O_ O_ 0.015034 0.230224 0.438054 0.0
O_ O_ 0.0467298 0.145918 0.309894 0.0
O_ O_ 0.226896 0.18425 0.290211 0.0
O_ O_ 0.203631 0.486025 0.279902 0.0
O_ O_ 0.255861 0.463454 0.245899 0.0
O_ O_ 0.29283 0.331113 0.360678 0.0
O_ O_ 0.140079 0.390195 0.363693 0.0
O_ O_ 0.0716808 0.447455 0.324332 0.0
O_ O_ 0.0193585 0.487208 0.313644 0.0
O_ O_ 0.0326767 0.377161 0.426093 0.0
O_ O_ 0.234231 0.433245 0.452272 0.0
O_ O_ 0.133785 0.265334 0.0321946 0.0
O_ O_ 0.0735021 0.286575 0.497003 0.0
O_ O_ 0.0392382 0.421279 0.111955 0.0
O_ O_ 0.205621 0.375299 0.102804 0.0
O_ O_ 0.268611 0.305695 0.0744716 0.0
O_ O_ 0.314735 0.258759 0.0692264 0.0
O_ O_ 0.281604 0.356632 0.191755 0.0
O_ O_ 0.127635 0.32409 0.19487 0.0
Cd Cd 0.227396 0.00581891 0.713221 0.0
Cd Cd 0.10253 0.239635 0.966057 0.0
Cd Cd 0.101135 0.489163 0.785771 0.0
Cd Cd 0.227218 0.264362 0.534402 0.0
H_ H_ 0.0225861 0.0801856 0.726677 0.0
H_ H_ 0.449568 0.165333 0.726325 0.0
H_ H_ 0.168522 0.0701517 0.682424 0.0
H_ H_ 0.179721 0.258322 0.599682 0.0
H_ H_ 0.128388 0.216569 0.633431 0.0
H_ H_ 0.152993 0.131618 0.572377 0.0
H_ H_ 0.19519 0.176673 0.537058 0.0
H_ H_ 0.0647702 0.0160174 0.653083 0.0
H_ H_ 0.123398 0.0403971 0.609555 0.0
H_ H_ 0.268598 0.0744634 0.622241 0.0
H_ H_ 0.127778 0.156938 0.972045 0.0
H_ H_ 0.0908129 0.102303 0.498063 0.0
H_ H_ 0.0155671 0.171954 0.561363 0.0
H_ H_ 0.0429191 0.223834 0.529042 0.0
H_ H_ 0.291887 0.154857 0.990855 0.0
H_ H_ 0.99293055 0.115749 0.945463 0.0
H_ H_ 0.182347 0.186668 0.925225 0.0
H_ H_ 0.154425 0.491423 0.849112 0.0
H_ H_ 0.177706 0.03111 0.893661 0.0
H_ H_ 0.196146 0.111755 0.824928 0.0
H_ H_ 0.142859 0.0708167 0.791821 0.0
H_ H_ 0.28436 0.246513 0.894823 0.0
H_ H_ 0.228552 0.227557 0.848221 0.0
H_ H_ 0.0658035 0.186797 0.867019 0.0
H_ H_ 0.227673 0.0928431 0.711865 0.0
H_ H_ 0.246677 0.146928 0.745454 0.0
H_ H_ 0.314266 0.076201 0.808827 0.0
H_ H_ 0.294206 0.0251232 0.778062 0.0
H_ H_ 0.219447 0.389683 0.741885 0.0
H_ H_ -0.00473438 0.367145 0.806108 0.0
H_ H_ 0.215334 0.450911 0.82436 0.0
H_ H_ 0.0863944 0.321454 0.946481 0.0
H_ H_ 0.107361 0.361557 0.902448 0.0
H_ H_ 0.235522 0.297803 0.87908 0.0
H_ H_ 0.194303 0.248564 0.913025 0.0
H_ H_ 0.269859 0.491042 0.851626 0.0
H_ H_ 0.222748 0.47845 0.898136 0.0
H_ H_ 0.0605707 0.425715 0.880719 0.0
H_ H_ 0.242857 0.354366 0.536464 0.0
H_ H_ 0.218994 0.395315 0.987861 0.0
H_ H_ 0.303442 0.322505 0.93613 0.0
H_ H_ 0.297192 0.278052 0.974302 0.0
H_ H_ 0.0144574 0.332569 0.520222 0.0
H_ H_ 0.440345 0.417776 0.51431 0.0
H_ H_ 0.170355 0.325084 0.561229 0.0
H_ H_ 0.154582 0.00209938 0.65456 0.0
H_ H_ 0.145353 0.467811 0.609163 0.0
H_ H_ 0.143791 0.386478 0.672406 0.0
H_ H_ 0.165682 0.433259 0.713657 0.0
H_ H_ 0.0728645 0.269394 0.594569 0.0
H_ H_ 0.121148 0.283325 0.643112 0.0
H_ H_ 0.323717 0.351927 0.601483 0.0
H_ H_ 0.0940202 0.402873 0.786956 0.0
H_ H_ 0.0891973 0.351759 0.75318 0.0
H_ H_ 0.0165855 0.418592 0.687196 0.0
H_ H_ 0.0451597 0.469757 0.718692 0.0
C_ C_ 0.106235 0.0428185 0.727515 0.0
C_ C_ 0.0986053 0.0745955 0.708976 0.0
C_ C_ 0.0515413 0.0912966 0.712367 0.0
C_ C_ 0.0407846 0.119542 0.691621 0.0
C_ C_ 0.080869 0.132596 0.672249 0.0
C_ C_ 0.127664 0.116477 0.670399 0.0
C_ C_ 0.134848 0.0850266 0.686446 0.0
C_ C_ 0.149369 0.12385 0.642042 0.0
C_ C_ 0.0746109 0.150291 0.645953 0.0
C_ C_ 0.174618 0.229543 0.594895 0.0
C_ C_ 0.145812 0.20567 0.613772 0.0
C_ C_ 0.136371 0.170938 0.605667 0.0
C_ C_ 0.153343 0.160496 0.57723 0.0
C_ C_ 0.17718 0.184528 0.557629 0.0
C_ C_ 0.30314 0.0359616 0.669053 0.0
C_ C_ 0.331111 0.0444716 0.639745 0.0
C_ C_ 0.0492685 0.0326249 0.635326 0.0
C_ C_ 0.080319 0.0419881 0.608519 0.0
C_ C_ 0.0554083 0.0584107 0.585724 0.0
C_ C_ 0.33738 0.0765531 0.593393 0.0
C_ C_ 0.308374 0.0667864 0.618632 0.0
C_ C_ 0.0790959 0.0796355 0.564378 0.0
C_ C_ 0.338533 0.109316 0.579759 0.0
C_ C_ 0.102217 0.159543 0.992591 0.0
C_ C_ 0.0825372 0.129948 0.506217 0.0
C_ C_ 0.0543179 0.132555 0.533044 0.0
C_ C_ 0.0393707 0.167752 0.541329 0.0
C_ C_ 0.0534483 0.197701 0.523093 0.0
C_ C_ 0.228648 0.209895 0.977778 0.0
C_ C_ 0.242825 0.178262 0.957962 0.0
C_ C_ 0.274103 0.151887 0.96865 0.0
C_ C_ 0.288724 0.123992 0.949052 0.0
C_ C_ 0.272084 0.123758 0.919423 0.0
C_ C_ 0.23776 0.148565 0.910095 0.0
C_ C_ 0.219541 0.174563 0.92976 0.0
C_ C_ 0.208703 0.13242 0.886644 0.0
C_ C_ 0.262234 0.0940536 0.902727 0.0
C_ C_ 0.15217 0.015558 0.84849 0.0
C_ C_ 0.173407 0.0396165 0.870495 0.0
C_ C_ 0.195315 0.0731187 0.861917 0.0
C_ C_ 0.189203 0.0841549 0.831503 0.0
C_ C_ 0.161295 0.0612732 0.811247 0.0
C_ C_ 0.0305294 0.213965 0.918112 0.0
C_ C_ 0.000555058 0.205967 0.890035 0.0
C_ C_ 0.29698 0.226449 0.879307 0.0
C_ C_ 0.26831 0.217691 0.852223 0.0
C_ C_ 0.289877 0.195809 0.831567 0.0
C_ C_ 0.996524 0.183072 0.839298 0.0
C_ C_ 0.0240538 0.18794 0.86683 0.0
C_ C_ 0.260144 0.174392 0.809881 0.0
C_ C_ 0.00178478 0.155194 0.819459 0.0
C_ C_ 0.239084 0.0889712 0.735034 0.0
C_ C_ 0.252245 0.1208 0.753375 0.0
C_ C_ 0.274966 0.115916 0.781957 0.0
C_ C_ 0.28878 0.0812436 0.789398 0.0
C_ C_ 0.280089 0.0519134 0.770325 0.0
C_ C_ 0.217099 0.457763 0.764866 0.0
C_ C_ 0.217439 0.42499 0.781428 0.0
C_ C_ 0.212505 0.39002 0.765382 0.0
C_ C_ 0.210531 0.358434 0.781885 0.0
C_ C_ 0.215188 0.359761 0.813646 0.0
C_ C_ 0.215165 0.392266 0.829414 0.0
C_ C_ 0.215287 0.424418 0.813465 0.0
C_ C_ 0.192735 0.384823 0.856729 0.0
C_ C_ 0.191495 0.334517 0.833013 0.0
C_ C_ 0.114064 0.312094 0.928879 0.0
C_ C_ 0.12577 0.335428 0.905 0.0
C_ C_ 0.16917 0.330409 0.886425 0.0
C_ C_ 0.201462 0.301168 0.893235 0.0
C_ C_ 0.181455 0.274577 0.913277 0.0
C_ C_ 0.03185 0.461191 0.8338 0.0
C_ C_ 1.00220876 0.45465 0.862018 0.0
C_ C_ 0.286516 0.473203 0.867167 0.0
C_ C_ 0.261904 0.466843 0.89484 0.0
C_ C_ 0.283545 0.443404 0.915097 0.0
C_ C_ 0.99771 0.4324 0.912035 0.0
C_ C_ 0.0245156 0.436816 0.884613 0.0
C_ C_ 0.255823 0.420114 0.933363 0.0
C_ C_ 0.000938314 0.404389 0.932315 0.0
C_ C_ 0.252058 0.348155 0.51347 0.0
C_ C_ 0.235026 0.369462 0.984494 0.0
C_ C_ 0.261686 0.362729 0.957844 0.0
C_ C_ 0.27758 0.327575 0.95286 0.0
C_ C_ 0.271547 0.301354 0.975323 0.0
C_ C_ 0.105167 0.294364 0.519002 0.0
C_ C_ 0.0969176 0.326813 0.537568 0.0
C_ C_ 0.0471429 0.343603 0.535541 0.0
C_ C_ 0.0387927 0.372977 0.553901 0.0
C_ C_ 0.0797831 0.385648 0.572957 0.0
C_ C_ 0.127465 0.371206 0.573568 0.0
C_ C_ 0.136503 0.340334 0.555898 0.0
C_ C_ 0.147884 0.377086 0.602435 0.0
C_ C_ 0.073201 0.401246 0.601023 0.0
C_ C_ 0.168282 0.48428 0.651892 0.0
C_ C_ 0.145946 0.460526 0.631665 0.0
C_ C_ 0.136436 0.4249 0.639757 0.0
C_ C_ 0.146795 0.414855 0.668638 0.0
C_ C_ 0.165509 0.439931 0.689612 0.0
C_ C_ 0.301199 0.283513 0.581514 0.0
C_ C_ 0.342189 0.297778 0.604378 0.0
C_ C_ 0.054194 0.285352 0.613342 0.0
C_ C_ 0.0822505 0.291504 0.640358 0.0
C_ C_ 0.0555728 0.306542 0.66415 0.0
C_ C_ 0.378509 0.344116 0.637221 0.0
C_ C_ 0.343065 0.332748 0.61435 0.0
C_ C_ 0.0778687 0.328745 0.685863 0.0
C_ C_ 0.367764 0.368589 0.65876 0.0
C_ C_ 0.0867441 0.40694 0.763187 0.0
C_ C_ 0.0749673 0.377146 0.746339 0.0
C_ C_ 0.0523493 0.380597 0.717242 0.0
C_ C_ 0.038409 0.414464 0.707727 0.0
C_ C_ 0.052635 0.444184 0.725238 0.0
N_ N_ 0.185699 0.219954 0.566384 0.0
N_ N_ 0.116188 0.144089 0.626898 0.0
N_ N_ 0.0444065 0.102796 0.553063 0.0
N_ N_ 0.0845412 0.193652 0.497925 0.0
N_ N_ 0.149221 0.0263922 0.81891 0.0
N_ N_ 0.222332 0.0983199 0.883439 0.0
N_ N_ 0.290864 0.14581 0.80171 0.0
N_ N_ 0.247417 0.0559311 0.746075 0.0
N_ N_ 0.137707 0.281558 0.931493 0.0
N_ N_ 0.174433 0.349253 0.858786 0.0
N_ N_ 0.27811 0.389922 0.936273 0.0
N_ N_ 0.244125 0.30847 -0.000157449 0.0
N_ N_ 0.177186 0.473606 0.680939 0.0
N_ N_ 0.115416 0.397698 0.61921 0.0
N_ N_ 0.0427861 0.35049 0.698274 0.0
N_ N_ 0.0779014 0.439744 0.752205 0.0
O_ O_ 0.132797 0.0172442 0.71801 0.0
O_ O_ 0.0816558 0.0389485 0.751938 0.0
O_ O_ 0.0284556 0.161055 0.635745 0.0
O_ O_ 0.17431 0.0995677 0.627592 0.0
O_ O_ 0.25805 0.0483153 0.674066 0.0
O_ O_ 0.316379 0.0118823 0.68602 0.0
O_ O_ 0.313729 0.136518 0.591076 0.0
O_ O_ 0.124602 0.0730432 0.550987 0.0
O_ O_ 0.202559 0.233553 0.967076 0.0
O_ O_ 0.253025 0.217773 0.499892 0.0
O_ O_ 0.280396 0.0627127 0.908865 0.0
O_ O_ 0.161037 0.141881 0.879025 0.0
O_ O_ 0.0740331 0.201553 0.922409 0.0
O_ O_ 0.0160472 0.238362 0.936665 0.0
O_ O_ 0.0344717 0.130224 0.825563 0.0
O_ O_ 0.207387 0.173996 0.807807 0.0
O_ O_ 0.191128 0.484149 0.774393 0.0
O_ O_ 0.252884 0.464521 0.746482 0.0
O_ O_ 0.166441 0.306378 0.821516 0.0
O_ O_ 0.172114 0.409122 0.874369 0.0
O_ O_ 0.0779553 0.453201 0.830441 0.0
O_ O_ 0.0180807 0.48403 0.816087 0.0
O_ O_ 0.0452315 0.394156 0.942749 0.0
O_ O_ 0.205352 0.423311 0.9388 0.0
O_ O_ 0.131071 0.269641 0.53049 0.0
O_ O_ 0.0788662 0.286624 0.999721864 0.0
O_ O_ 0.0261074 0.40944 0.612021 0.0
O_ O_ 0.198267 0.376364 0.608536 0.0
O_ O_ 0.257939 0.299795 0.576958 0.0
O_ O_ 0.31095 0.260551 0.562204 0.0
O_ O_ 0.344532 0.397557 0.652462 0.0
O_ O_ 0.125582 0.323657 0.697341 0.0
Cd Cd 0.23281 0.513035 0.212753 0.0
Cd Cd 0.106092 0.735885 0.4638 0.0
Cd Cd 0.107368 0.98979 0.284626 0.0
Cd Cd 0.230904 0.764281 0.0353483 0.0
H_ H_ 0.0212256 0.585635 0.231173 0.0
H_ H_ 0.333846 0.626452 0.187775 0.0
H_ H_ 0.162987 0.566811 0.177046 0.0
H_ H_ 0.197742 0.75754 0.106187 0.0
H_ H_ 0.156404 0.716435 0.142473 0.0
H_ H_ 0.148373 0.635175 0.0750804 0.0
H_ H_ 0.196318 0.681503 0.0394623 0.0
H_ H_ 0.0666975 0.516333 0.15239 0.0
H_ H_ 0.118018 0.535412 0.103989 0.0
H_ H_ 0.27719 0.585303 0.120113 0.0
H_ H_ 0.114344 0.649716 0.465666 0.0
H_ H_ 0.107856 0.601734 1.0049191 0.0
H_ H_ 0.0215594 0.669427 0.0608469 0.0
H_ H_ 0.0381319 0.717369 0.0250034 0.0
H_ H_ 0.316852 0.677128 0.472685 0.0
H_ H_ 1.0006 0.627831 0.4348 0.0
H_ H_ 0.16484 0.687068 0.429026 0.0
H_ H_ 0.164143 0.992912 0.349615 0.0
H_ H_ 0.191 0.520711 0.39312 0.0
H_ H_ 0.16173 0.608828 0.339339 0.0
H_ H_ 0.140447 0.57094 0.296453 0.0
H_ H_ 0.267235 0.732636 0.403706 0.0
H_ H_ 0.20854 0.706995 0.362293 0.0
H_ H_ 0.0546496 0.666469 0.371835 0.0
H_ H_ 0.22329 0.598392 0.218488 0.0
H_ H_ 0.249403 0.646872 0.251391 0.0
H_ H_ 0.313642 0.575313 0.315228 0.0
H_ H_ 0.288341 0.524177 0.277881 0.0
H_ H_ 0.296625 0.901944 0.25729 0.0
H_ H_ 1.00009 0.874028 0.312225 0.0
H_ H_ 0.172443 0.939636 0.31394 0.0
H_ H_ 0.148596 0.742422 0.393332 0.0
H_ H_ 0.1917 0.784231 0.358177 0.0
H_ H_ 0.170428 0.87046 0.419525 0.0
H_ H_ 0.144681 0.821932 0.460157 0.0
H_ H_ 0.262966 0.98187 0.345273 0.0
H_ H_ 0.209413 0.959661 0.391124 0.0
H_ H_ 0.0640223 0.92986 0.383387 0.0
H_ H_ 0.196093 0.845235 0.0250915 0.0
H_ H_ 0.241317 0.901892 0.500605 0.0
H_ H_ 0.306315 0.83304 0.435318 0.0
H_ H_ 0.281776 0.78064 0.469047 0.0
H_ H_ 0.0209344 0.830136 0.0218543 0.0
H_ H_ 0.3377 0.882422 0.0568395 0.0
H_ H_ 0.16665 0.816852 0.0713532 0.0
H_ H_ 0.188559 0.515467 0.145535 0.0
H_ H_ 0.155939 0.977124 0.101346 0.0
H_ H_ 0.147653 0.890186 0.165661 0.0
H_ H_ 0.182177 0.93523 0.204905 0.0
H_ H_ 0.0668944 0.766252 0.0978896 0.0
H_ H_ 0.120982 0.781288 0.144113 0.0
H_ H_ 0.273626 0.831553 0.128516 0.0
H_ H_ 0.104934 0.903356 0.284084 0.0
H_ H_ 0.0881899 0.850971 0.250936 0.0
H_ H_ 0.0217956 0.919553 0.185753 0.0
H_ H_ 0.0460392 0.970963 0.220732 0.0
C_ C_ 0.105664 0.54079 0.22712 0.0
C_ C_ 0.0967678 0.573638 0.207739 0.0
C_ C_ 0.0520892 0.593782 0.213632 0.0
C_ C_ 0.0422972 0.621631 0.194546 0.0
C_ C_ 0.0827399 0.635465 0.176288 0.0
C_ C_ 0.125739 0.616289 0.170481 0.0
C_ C_ 0.131848 0.583709 0.184134 0.0
C_ C_ 0.144743 0.626222 0.142477 0.0
C_ C_ 0.0779783 0.656984 0.150257 0.0
C_ C_ 0.175913 0.733636 0.0985357 0.0
C_ C_ 0.152355 0.709672 0.118991 0.0
C_ C_ 0.135209 0.675174 0.108914 0.0
C_ C_ 0.155113 0.66318 0.0804267 0.0
C_ C_ 0.177145 0.688474 0.0606974 0.0
C_ C_ 0.301318 0.538166 0.165547 0.0
C_ C_ 0.333109 0.548209 0.140119 0.0
C_ C_ 0.0502011 0.531258 0.135249 0.0
C_ C_ 0.0756413 0.536801 0.106677 0.0
C_ C_ 0.0489092 0.553399 0.0838169 0.0
C_ C_ 0.337114 0.569355 0.0890491 0.0
C_ C_ 0.312761 0.568797 0.11653 0.0
C_ C_ 0.0735463 0.573709 0.060771 0.0
C_ C_ 0.332294 0.596615 0.0689269 0.0
C_ C_ 0.0993403 0.653182 0.48743 0.0
C_ C_ 0.0899875 0.626974 0.0091867 0.0
C_ C_ 0.0597979 0.631096 0.0346158 0.0
C_ C_ 0.042473 0.664134 0.0416258 0.0
C_ C_ 0.0563748 0.692475 0.0225525 0.0
C_ C_ 0.224253 0.710043 0.476107 0.0
C_ C_ 0.237074 0.681714 0.455859 0.0
C_ C_ 0.286772 0.665717 0.457212 0.0
C_ C_ 0.296187 0.63696 0.438466 0.0
C_ C_ 0.258552 0.627727 0.416178 0.0
C_ C_ 0.212278 0.645358 0.413275 0.0
C_ C_ 0.199955 0.671302 0.433113 0.0
C_ C_ 0.175399 0.621888 0.39938 0.0
C_ C_ 0.248896 0.594914 0.403799 0.0
C_ C_ 0.160656 0.508935 0.348564 0.0
C_ C_ 0.183794 0.530913 0.371424 0.0
C_ C_ 0.185492 0.568178 0.368652 0.0
C_ C_ 0.168582 0.582554 0.341842 0.0
C_ C_ 0.147813 0.560194 0.318912 0.0
C_ C_ 0.032326 0.712951 0.417424 0.0
C_ C_ -0.000992258 0.703585 0.390533 0.0
C_ C_ 0.283274 0.716312 0.386988 0.0
C_ C_ 0.250946 0.703547 0.36266 0.0
C_ C_ 0.275647 0.688941 0.337675 0.0
C_ C_ 0.998078 0.682763 0.338536 0.0
C_ C_ 0.0226388 0.68462 0.366467 0.0
C_ C_ 0.250659 0.664438 0.318215 0.0
C_ C_ 0.0016232 0.6548 0.318139 0.0
C_ C_ 0.245794 0.593001 0.23838 0.0
C_ C_ 0.256498 0.620981 0.258714 0.0
C_ C_ 0.278784 0.614652 0.286223 0.0
C_ C_ 0.292986 0.579324 0.293624 0.0
C_ C_ 0.278761 0.551795 0.273298 0.0
C_ C_ 0.227541 0.957705 0.262842 0.0
C_ C_ 0.234021 0.926978 0.282974 0.0
C_ C_ 0.276493 0.902368 0.27845 0.0
C_ C_ 0.287676 0.87778 0.299986 0.0
C_ C_ 0.261346 0.878551 0.327262 0.0
C_ C_ 0.216004 0.896018 0.329914 0.0
C_ C_ 0.204761 0.924248 0.31038 0.0
C_ C_ 0.187729 0.882531 0.353464 0.0
C_ C_ 0.259736 0.852502 0.349852 0.0
C_ C_ 0.156378 0.768927 0.400666 0.0
C_ C_ 0.182188 0.792867 0.380285 0.0
C_ C_ 0.189774 0.828906 0.387951 0.0
C_ C_ 0.171416 0.8402 0.416255 0.0
C_ C_ 0.151465 0.814429 0.436949 0.0
C_ C_ 0.034942 0.963466 0.33245 0.0
C_ C_ 0.00218568 0.954396 0.359787 0.0
C_ C_ 0.282167 0.965829 0.363257 0.0
C_ C_ 0.252861 0.959519 0.390388 0.0
C_ C_ 0.280972 0.945074 0.414916 0.0
C_ C_ 0.996688 0.932573 0.411067 0.0
C_ C_ 0.0255542 0.93866 0.384519 0.0
C_ C_ 0.256666 0.923693 0.437293 0.0
C_ C_ 1.00171431 0.905616 0.431234 0.0
C_ C_ 0.222291 0.842407 0.00576259 0.0
C_ C_ 0.252101 0.875274 0.493336 0.0
C_ C_ 0.274914 0.870072 0.465772 0.0
C_ C_ 0.285111 0.835582 0.456604 0.0
C_ C_ 0.269132 0.805477 0.474735 0.0
C_ C_ 0.103125 0.788155 0.0247795 0.0
C_ C_ 0.0921062 0.81729 0.0454787 0.0
C_ C_ 0.0470814 0.837549 0.0401557 0.0
C_ C_ 0.0362102 0.864595 0.0609082 0.0
C_ C_ 0.06976 0.872101 0.0841151 0.0
C_ C_ 0.113192 0.854199 0.0890501 0.0
C_ C_ 0.127856 0.828128 0.0686331 0.0
C_ C_ 0.149514 0.877121 0.104049 0.0
C_ C_ 0.0784267 0.905281 0.0979112 0.0
C_ C_ 0.1764 0.990922 0.146718 0.0
C_ C_ 0.150665 0.969581 0.124904 0.0
C_ C_ 0.142663 0.932662 0.131693 0.0
C_ C_ 0.155578 0.919112 0.159785 0.0
C_ C_ 0.171067 0.94408 0.18177 0.0
C_ C_ 0.303574 0.789156 0.0813708 0.0
C_ C_ 0.333593 0.797545 0.10903 0.0
C_ C_ 0.0502675 0.781156 0.114632 0.0
C_ C_ 0.0789372 0.788174 0.141212 0.0
C_ C_ 0.0545815 0.805435 0.164478 0.0
C_ C_ 0.337325 0.819392 0.159728 0.0
C_ C_ 0.313016 0.820025 0.131366 0.0
C_ C_ 0.078764 0.829078 0.184852 0.0
C_ C_ 0.332806 0.847639 0.179292 0.0
C_ C_ 0.095115 0.908193 0.261522 0.0
C_ C_ 0.0798717 0.878038 0.244063 0.0
C_ C_ 0.0587135 0.882345 0.214275 0.0
C_ C_ 0.0456973 0.916818 0.206519 0.0
C_ C_ 0.0568682 0.945275 0.226246 0.0
N_ N_ 0.182532 0.722776 0.0689596 0.0
N_ N_ 0.115095 0.649624 0.129562 0.0
N_ N_ 0.0423424 0.60038 0.0522325 0.0
N_ N_ 0.089319 0.688001 0.999770418 0.0
N_ N_ 0.145921 0.524603 0.322025 0.0
N_ N_ 0.198174 0.590271 0.394045 0.0
N_ N_ 0.28723 0.643686 0.306221 0.0
N_ N_ 0.250493 0.558221 0.247139 0.0
N_ N_ 0.145165 0.778834 0.429766 0.0
N_ N_ 0.212203 0.853534 0.365109 0.0
N_ N_ 0.289863 0.900079 0.447349 0.0
N_ N_ 0.24647 0.812023 0.502226 0.0
N_ N_ 0.182028 0.978341 0.174523 0.0
N_ N_ 0.127669 0.90869 0.108279 0.0
N_ N_ 0.0444269 0.852708 0.19558 0.0
N_ N_ 0.0868341 0.941367 0.251671 0.0
O_ O_ 0.132174 0.516663 0.214138 0.0
O_ O_ 0.0808083 0.535657 0.251889 0.0
O_ O_ 0.0300054 0.666583 0.141226 0.0
O_ O_ 0.183568 0.611309 0.128246 0.0
O_ O_ 0.257818 0.553849 0.171178 0.0
O_ O_ 0.313633 0.515624 0.184133 0.0
O_ O_ 0.287052 0.602455 0.0567752 0.0
O_ O_ 0.126457 0.577267 0.0577065 0.0
O_ O_ 0.200811 0.736567 0.465856 0.0
O_ O_ 0.260365 0.71961 -0.004337999999999953 0.0
O_ O_ 0.287767 0.576838 0.392213 0.0
O_ O_ 0.124171 0.621462 0.404659 0.0
O_ O_ 0.0752497 0.697795 0.4225 0.0
O_ O_ 0.0209659 0.737 0.435629 0.0
O_ O_ 0.0375117 0.631983 0.320093 0.0
O_ O_ 0.207041 0.670086 0.303613 0.0
O_ O_ 0.201326 0.984147 0.272181 0.0
O_ O_ 0.258373 0.96358 0.240418 0.0
O_ O_ 0.286909 0.824066 0.348929 0.0
O_ O_ 0.135277 0.882824 0.353294 0.0
O_ O_ 0.0802596 0.953673 0.329841 0.0
O_ O_ 0.0206778 0.986725 0.312637 0.0
O_ O_ 0.0450112 0.890884 0.437523 0.0
O_ O_ 0.210028 0.927887 0.44934 0.0
O_ O_ 0.135686 0.764677 0.0329681 0.0
O_ O_ 0.0770207 0.782827 0.498823 0.0
O_ O_ 0.0375382 0.917964 0.112044 0.0
O_ O_ 0.201747 0.876544 0.0988862 0.0
O_ O_ 0.26448 0.806792 0.0733709 0.0
O_ O_ 0.314989 0.763501 0.0649827 0.0
O_ O_ 0.28587 0.855987 0.19046 0.0
O_ O_ 0.122015 0.821809 0.199234 0.0
Cd Cd 0.226622 0.511855 0.712129 0.0
Cd Cd 0.100633 0.733787 0.965837 0.0
Cd Cd 0.105002 0.987522 0.784753 0.0
Cd Cd 0.230203 0.760788 0.535621 0.0
H_ H_ 0.02726 0.59295 0.733223 0.0
H_ H_ 0.338508 0.632454 0.693837 0.0
H_ H_ 0.165355 0.563031 0.685313 0.0
H_ H_ 0.175442 0.76679 0.600507 0.0
H_ H_ 0.157999 0.726706 0.642721 0.0
H_ H_ 0.157893 0.635648 0.583526 0.0
H_ H_ 0.196877 0.67582 0.545082 0.0
H_ H_ 0.0642555 0.513446 0.652355 0.0
H_ H_ 0.121075 0.533239 0.606155 0.0
H_ H_ 0.269063 0.57207 0.618018 0.0
H_ H_ 0.127514 0.653046 0.972132 0.0
H_ H_ 0.0925469 0.595955 0.499793 0.0
H_ H_ 0.0304948 0.665646 0.562729 0.0
H_ H_ 0.0521334 0.717312 0.529272 0.0
H_ H_ 0.308756 0.665348 0.979537 0.0
H_ H_ 0.99413975 0.617268 0.943821 0.0
H_ H_ 0.163633 0.680135 0.929383 0.0
H_ H_ 0.137618 0.988214 0.853366 0.0
H_ H_ 0.187074 0.536189 0.888009 0.0
H_ H_ 0.166068 0.619301 0.824574 0.0
H_ H_ 0.121013 0.574469 0.790868 0.0
H_ H_ 0.26494 0.732129 0.903431 0.0
H_ H_ 0.211444 0.712458 0.857895 0.0
H_ H_ 0.0609028 0.671596 0.869143 0.0
H_ H_ 0.226752 0.597188 0.71612 0.0
H_ H_ 0.245709 0.649975 0.749973 0.0
H_ H_ 0.310572 0.578971 0.810408 0.0
H_ H_ 0.280976 0.52778 0.783036 0.0
H_ H_ 0.317351 0.922522 0.776647 0.0
H_ H_ 1.00019 0.87458 0.812924 0.0
H_ H_ 0.167668 0.932643 0.819987 0.0
H_ H_ 0.152302 0.740078 0.898481 0.0
H_ H_ 0.206187 0.781244 0.863844 0.0
H_ H_ 0.179422 0.866041 0.926009 0.0
H_ H_ 0.125435 0.82396 0.960758 0.0
H_ H_ 0.277488 0.995055 0.852654 0.0
H_ H_ 0.221846 0.976201 0.89573 0.0
H_ H_ 0.06262 0.928649 0.880881 0.0
H_ H_ 0.21834 0.850867 0.532232 0.0
H_ H_ 0.222978 0.897502 0.992847 0.0
H_ H_ 0.310021 0.829677 0.936815 0.0
H_ H_ 0.280402 0.778371 0.967639 0.0
H_ H_ 0.0145944 0.82253 0.530894 0.0
H_ H_ 0.331687 0.87355 0.564261 0.0
H_ H_ 0.170637 0.812218 0.566158 0.0
H_ H_ 0.18441 0.511454 0.643161 0.0
H_ H_ 0.108444 0.959025 0.620649 0.0
H_ H_ 0.176171 0.877498 0.675085 0.0
H_ H_ 0.221437 0.924533 0.705106 0.0
H_ H_ 0.063027 0.76059 0.596991 0.0
H_ H_ 0.123832 0.787667 0.642118 0.0
H_ H_ 0.270084 0.822181 0.631961 0.0
H_ H_ 0.111114 0.900503 0.78405 0.0
H_ H_ 0.0818937 0.848448 0.75046 0.0
H_ H_ 0.0378342 0.921973 0.682109 0.0
H_ H_ 0.0681559 0.972376 0.717684 0.0
C_ C_ 0.0985107 0.538317 0.728793 0.0
C_ C_ 0.0920568 0.569108 0.708909 0.0
C_ C_ 0.0480539 0.590807 0.712212 0.0
C_ C_ 0.0385024 0.614152 0.688751 0.0
C_ C_ 0.0699023 0.61831 0.66446 0.0
C_ C_ 0.116007 0.601792 0.663922 0.0
C_ C_ 0.127336 0.575296 0.684566 0.0
C_ C_ 0.154747 0.623959 0.649685 0.0
C_ C_ 0.0810713 0.651205 0.649093 0.0
C_ C_ 0.175175 0.737503 0.597316 0.0
C_ C_ 0.156998 0.714886 0.620657 0.0
C_ C_ 0.152457 0.677041 0.617402 0.0
C_ C_ 0.166289 0.66413 0.588424 0.0
C_ C_ 0.185809 0.687522 0.566488 0.0
C_ C_ 0.301273 0.535088 0.666189 0.0
C_ C_ 0.332777 0.544516 0.639181 0.0
C_ C_ 0.0519044 0.534157 0.637359 0.0
C_ C_ 0.0792713 0.540577 0.609799 0.0
C_ C_ 0.051806 0.554013 0.584851 0.0
C_ C_ 0.335745 0.565973 0.588172 0.0
C_ C_ 0.310346 0.562829 0.615447 0.0
C_ C_ 0.0742784 0.572017 0.55972 0.0
C_ C_ 0.331284 0.594999 0.569182 0.0
C_ C_ 0.105012 0.655707 0.992559 0.0
C_ C_ 0.0845779 0.62309 0.505655 0.0
C_ C_ 0.0609044 0.628052 0.533012 0.0
C_ C_ 0.0488642 0.662686 0.541359 0.0
C_ C_ 0.0652933 0.691039 0.523809 0.0
C_ C_ 0.228034 0.709926 0.974988 0.0
C_ C_ 0.236419 0.677103 0.957466 0.0
C_ C_ 0.282869 0.659477 0.960635 0.0
C_ C_ 0.29227 0.630535 0.941616 0.0
C_ C_ 0.250245 0.614913 0.924464 0.0
C_ C_ 0.205149 0.632619 0.921419 0.0
C_ C_ 0.200119 0.665294 0.935677 0.0
C_ C_ 0.188278 0.626409 0.892119 0.0
C_ C_ 0.259107 0.598637 0.897645 0.0
C_ C_ 0.162115 0.518441 0.843097 0.0
C_ C_ 0.181985 0.543542 0.865127 0.0
C_ C_ 0.195739 0.579627 0.855827 0.0
C_ C_ 0.169253 0.591155 0.829139 0.0
C_ C_ 0.14472 0.565523 0.810369 0.0
C_ C_ 0.0283331 0.707292 0.919165 0.0
C_ C_ -7.699999999999374e-05 0.701562 0.89059 0.0
C_ C_ 0.282023 0.716102 0.886374 0.0
C_ C_ 0.252693 0.705837 0.860318 0.0
C_ C_ 0.277627 0.692787 0.83622 0.0
C_ C_ 0.997585 0.683537 0.838489 0.0
C_ C_ 0.0225864 0.68363 0.866993 0.0
C_ C_ 0.253174 0.671025 0.814263 0.0
C_ C_ 0.00217985 0.657152 0.81699 0.0
C_ C_ 0.235942 0.59246 0.738982 0.0
C_ C_ 0.249094 0.622073 0.758784 0.0
C_ C_ 0.27228 0.617217 0.784647 0.0
C_ C_ 0.287966 0.583575 0.791678 0.0
C_ C_ 0.273114 0.55415 0.773663 0.0
C_ C_ 0.228601 0.957598 0.772826 0.0
C_ C_ 0.237795 0.928256 0.792396 0.0
C_ C_ 0.287393 0.91297 0.792318 0.0
C_ C_ 0.293617 0.882779 0.810324 0.0
C_ C_ 0.25292 0.870365 0.828517 0.0
C_ C_ 0.207494 0.887122 0.83065 0.0
C_ C_ 0.199944 0.918214 0.814484 0.0
C_ C_ 0.178179 0.871962 0.85447 0.0
C_ C_ 0.256374 0.849576 0.854667 0.0
C_ C_ 0.159606 0.766669 0.90517 0.0
C_ C_ 0.188667 0.789563 0.885435 0.0
C_ C_ 0.192391 0.826998 0.892756 0.0
C_ C_ 0.174956 0.83823 0.921975 0.0
C_ C_ 0.145705 0.813851 0.940774 0.0
C_ C_ 0.0326237 0.961818 0.832174 0.0
C_ C_ 0.999153413 0.952054 0.859152 0.0
C_ C_ 0.290267 0.974196 0.867226 0.0
C_ C_ 0.260202 0.965914 0.894 0.0
C_ C_ 0.282793 0.944785 0.915605 0.0
C_ C_ 0.997461 0.933085 0.911979 0.0
C_ C_ 0.0234241 0.936388 0.883471 0.0
C_ C_ 0.257527 0.924657 0.937186 0.0
C_ C_ 0.003109999999999946 0.90585 0.932352 0.0
C_ C_ 0.238927 0.84648 0.512102 0.0
C_ C_ 0.239311 0.872868 0.988559 0.0
C_ C_ 0.273544 0.869796 0.964191 0.0
C_ C_ 0.290606 0.835554 0.957689 0.0
C_ C_ 0.270967 0.805515 0.974871 0.0
C_ C_ 0.105102 0.787548 0.521258 0.0
C_ C_ 0.0965185 0.817433 0.542412 0.0
C_ C_ 0.0495008 0.837447 0.539502 0.0
C_ C_ 0.0408619 0.866624 0.557723 0.0
C_ C_ 0.0808232 0.876418 0.578259 0.0
C_ C_ 0.130143 0.860654 0.578744 0.0
C_ C_ 0.136677 0.829122 0.562259 0.0
C_ C_ 0.151155 0.867702 0.607123 0.0
C_ C_ 0.0741836 0.892307 0.605322 0.0
C_ C_ 0.157013 0.974958 0.658921 0.0
C_ C_ 0.131206 0.951379 0.639982 0.0
C_ C_ 0.13778 0.915256 0.644218 0.0
C_ C_ 0.168611 0.904679 0.669802 0.0
C_ C_ 0.188928 0.929567 0.689086 0.0
C_ C_ 0.304953 0.78782 0.582286 0.0
C_ C_ 0.333528 0.795197 0.609797 0.0
C_ C_ 0.0494391 0.78011 0.614685 0.0
C_ C_ 0.0800851 0.790616 0.640512 0.0
C_ C_ 0.0560878 0.808009 0.66421 0.0
C_ C_ 0.336918 0.817766 0.660906 0.0
C_ C_ 0.309816 0.814167 0.633307 0.0
C_ C_ 0.0805315 0.829858 0.685014 0.0
C_ C_ 0.33181 0.845703 0.68115 0.0
C_ C_ 0.095936 0.905273 0.762518 0.0
C_ C_ 0.0788142 0.876325 0.7441 0.0
C_ C_ 0.0602887 0.882491 0.714254 0.0
C_ C_ 0.0568056 0.917007 0.70404 0.0
C_ C_ 0.0726488 0.946042 0.724195 0.0
N_ N_ 0.190894 0.723748 0.57068 0.0
N_ N_ 0.133378 0.65521 0.64165 0.0
N_ N_ 0.0423499 0.598505 0.551185 0.0
N_ N_ 0.090394 0.686458 0.497703 0.0
N_ N_ 0.14423 0.530287 0.817036 0.0
N_ N_ 0.218988 0.605764 0.876606 0.0
N_ N_ 0.286891 0.648354 0.80435 0.0
N_ N_ 0.250158 0.559814 0.746882 0.0
N_ N_ 0.143677 0.778983 0.933669 0.0
N_ N_ 0.211433 0.851535 0.870765 0.0
N_ N_ 0.289999 0.900537 0.946979 0.0
N_ N_ 0.241239 0.810314 -0.00038400000000005097 0.0
N_ N_ 0.180506 0.964891 0.684343 0.0
N_ N_ 0.118143 0.889025 0.621936 0.0
N_ N_ 0.0462359 0.852528 0.695415 0.0
N_ N_ 0.0911218 0.939577 0.752633 0.0
O_ O_ 0.127492 0.513461 0.721219 0.0
O_ O_ 0.0657524 0.532989 0.75088 0.0
O_ O_ 0.0444623 0.665646 0.632818 0.0
O_ O_ 0.2053 0.623392 0.655349 0.0
O_ O_ 0.263949 0.553784 0.673032 0.0
O_ O_ 0.306743 0.506508 0.680507 0.0
O_ O_ 0.285111 0.603089 0.558493 0.0
O_ O_ 0.126881 0.577025 0.556828 0.0
O_ O_ 0.200459 0.733453 0.963783 0.0
O_ O_ 0.253465 0.714878 0.499922 0.0
O_ O_ 0.283505 0.569504 0.896362 0.0
O_ O_ 0.137186 0.627579 0.886003 0.0
O_ O_ 0.0708999 0.693832 0.923686 0.0
O_ O_ 0.017616 0.732419 0.936596 0.0
O_ O_ 0.0476117 0.64365 0.81048 0.0
O_ O_ 0.215616 0.682913 0.797593 0.0
O_ O_ 0.206047 0.98381 0.784683 0.0
O_ O_ 0.255507 0.961226 0.749361 0.0
O_ O_ 0.30302 0.843633 0.867387 0.0
O_ O_ 0.142095 0.889127 0.86877 0.0
O_ O_ 0.0751541 0.946769 0.826379 0.0
O_ O_ 0.0185442 0.985034 0.814075 0.0
O_ O_ 0.0382111 0.881996 0.929697 0.0
O_ O_ 0.214749 0.933998 0.951892 0.0
O_ O_ 0.132617 0.762465 0.52965 0.0
O_ O_ 0.0728851 0.781182 0.0015600000000000058 0.0
O_ O_ 0.0272399 0.896644 0.617875 0.0
O_ O_ 0.20161 0.865746 0.613266 0.0
O_ O_ 0.265107 0.805145 0.574694 0.0
O_ O_ 0.312056 0.760146 0.567676 0.0
O_ O_ 0.298779 0.871142 0.676196 0.0
O_ O_ 0.119362 0.818805 0.702367 0.0
Cd Cd 0.561756 0.0112548 0.21543 0.0
Cd Cd 0.437226 0.235549 0.460522 0.0
Cd Cd 0.437128 0.490896 0.283147 0.0
Cd Cd 0.562492 0.262507 0.0366621 0.0
H_ H_ 0.377087 0.0960464 0.236232 0.0
H_ H_ 0.673605 0.1344 0.195656 0.0
H_ H_ 0.490907 0.0598582 0.174824 0.0
H_ H_ 0.519301 0.254796 0.104428 0.0
H_ H_ 0.477786 0.21204 0.138068 0.0
H_ H_ 0.490929 0.12978 0.0711766 0.0
H_ H_ 0.524642 0.176183 0.0363714 0.0
H_ H_ 0.387693 0.00353491 0.140201 0.0
H_ H_ 0.435069 0.0191411 0.0903631 0.0
H_ H_ 0.599119 0.0616508 0.11576 0.0
H_ H_ 0.462947 0.155113 0.475081 0.0
H_ H_ 0.391127 0.098758 0.989352 0.0
H_ H_ 0.34558 0.166798 0.0601786 0.0
H_ H_ 0.380596 0.217823 0.0312689 0.0
H_ H_ 0.651428 0.17353 0.474257 0.0
H_ H_ 0.331578 0.121723 0.44385 0.0
H_ H_ 0.505131 0.184431 0.428597 0.0
H_ H_ 0.50298 0.490925 0.346241 0.0
H_ H_ 0.536836 0.0304233 0.3855 0.0
H_ H_ 0.517643 0.116238 0.322794 0.0
H_ H_ 0.470423 0.0739648 0.288183 0.0
H_ H_ 0.598818 0.235696 0.4017 0.0
H_ H_ 0.547136 0.217824 0.356054 0.0
H_ H_ 0.406893 0.182896 0.355908 0.0
H_ H_ 0.55496 0.101585 0.215293 0.0
H_ H_ 0.57849 0.15165 0.248643 0.0
H_ H_ 0.646271 0.082252 0.310393 0.0
H_ H_ 0.619367 0.0306199 0.276122 0.0
H_ H_ 0.64585 0.420293 0.27306 0.0
H_ H_ 0.32311 0.365038 0.303758 0.0
H_ H_ 0.504716 0.433988 0.3212 0.0
H_ H_ 0.47903 0.238649 0.39406 0.0
H_ H_ 0.522093 0.282105 0.35726 0.0
H_ H_ 0.516111 0.360469 0.424325 0.0
H_ H_ 0.496523 0.316721 0.461249 0.0
H_ H_ 0.596334 0.478989 0.347 0.0
H_ H_ 0.544131 0.4602 0.391008 0.0
H_ H_ 0.391344 0.417339 0.371527 0.0
H_ H_ 0.553992 0.348489 0.0335493 0.0
H_ H_ 0.586445 0.400126 0.500885 0.0
H_ H_ 0.638838 0.326017 0.43536 0.0
H_ H_ 0.624964 0.278784 0.471242 0.0
H_ H_ 0.363466 0.338882 0.0186967 0.0
H_ H_ 0.676371 0.385432 0.0533763 0.0
H_ H_ 0.493847 0.312864 0.0720408 0.0
H_ H_ 0.504698 0.00836824 0.150689 0.0
H_ H_ 0.459284 0.467964 0.116097 0.0
H_ H_ 0.497953 0.382219 0.173847 0.0
H_ H_ 0.529903 0.424048 0.210875 0.0
H_ H_ 0.409269 0.275269 0.0987721 0.0
H_ H_ 0.450761 0.283099 0.146864 0.0
H_ H_ 0.609234 0.333551 0.128369 0.0
H_ H_ 0.466561 0.405548 0.280841 0.0
H_ H_ 0.431349 0.350592 0.256025 0.0
H_ H_ 0.337448 0.416789 0.198367 0.0
H_ H_ 0.375064 0.471095 0.225424 0.0
C_ C_ 0.442511 0.0409627 0.226645 0.0
C_ C_ 0.432209 0.0727937 0.207259 0.0
C_ C_ 0.395094 0.097084 0.213802 0.0
C_ C_ 0.377498 0.120037 0.191254 0.0
C_ C_ 0.395154 0.11799 0.162342 0.0
C_ C_ 0.434484 0.0937337 0.155443 0.0
C_ C_ 0.456484 0.0736199 0.178637 0.0
C_ C_ 0.464579 0.109341 0.132918 0.0
C_ C_ 0.405213 0.146644 0.142993 0.0
C_ C_ 0.503014 0.230128 0.0955317 0.0
C_ C_ 0.479478 0.204433 0.115547 0.0
C_ C_ 0.472011 0.168429 0.10604 0.0
C_ C_ 0.487682 0.158773 0.0770517 0.0
C_ C_ 0.512949 0.185194 0.0588159 0.0
C_ C_ 0.633964 0.034959 0.166691 0.0
C_ C_ 0.665259 0.0440389 0.139425 0.0
C_ C_ 0.373612 0.0226748 0.124953 0.0
C_ C_ 0.397834 0.0289169 0.0964238 0.0
C_ C_ 0.370455 0.0502416 0.0752205 0.0
C_ C_ 0.669244 0.0671918 0.088994 0.0
C_ C_ 0.641486 0.0602664 0.115349 0.0
C_ C_ 0.392284 0.0701185 0.0519092 0.0
C_ C_ 0.666095 0.096129 0.0692498 0.0
C_ C_ 0.438385 0.160978 0.494603 0.0
C_ C_ 0.396848 0.125149 -0.0006087 0.0
C_ C_ 0.379283 0.128857 0.0298916 0.0
C_ C_ 0.373676 0.162079 0.0417337 0.0
C_ C_ 0.392808 0.191878 0.0248899 0.0
C_ C_ 0.561773 0.206975 0.479185 0.0
C_ C_ 0.573838 0.178383 0.457146 0.0
C_ C_ 0.619373 0.160612 0.460458 0.0
C_ C_ 0.628313 0.132304 0.440333 0.0
C_ C_ 0.586233 0.117148 0.422948 0.0
C_ C_ 0.540808 0.13451 0.420064 0.0
C_ C_ 0.537322 0.167787 0.434284 0.0
C_ C_ 0.519916 0.124537 0.392256 0.0
C_ C_ 0.590326 0.0965485 0.398003 0.0
C_ C_ 0.502304 0.0154689 0.341805 0.0
C_ C_ 0.524918 0.0392431 0.362318 0.0
C_ C_ 0.528258 0.0757746 0.356784 0.0
C_ C_ 0.509389 0.0886369 0.329445 0.0
C_ C_ 0.489533 0.0639906 0.308244 0.0
C_ C_ 0.371645 0.214651 0.408043 0.0
C_ C_ 0.34231 0.206712 0.37972 0.0
C_ C_ 0.618204 0.220628 0.384678 0.0
C_ C_ 0.589083 0.211462 0.358438 0.0
C_ C_ 0.613524 0.194066 0.335972 0.0
C_ C_ 0.328748 0.166229 0.337437 0.0
C_ C_ 0.36435 0.185761 0.356671 0.0
C_ C_ 0.587166 0.170565 0.316936 0.0
C_ C_ 0.342067 0.149092 0.311067 0.0
C_ C_ 0.566958 0.0968335 0.237891 0.0
C_ C_ 0.581876 0.125576 0.256691 0.0
C_ C_ 0.609402 0.120271 0.283267 0.0
C_ C_ 0.618837 0.0861995 0.291395 0.0
C_ C_ 0.605178 0.0577805 0.271808 0.0
C_ C_ 0.560841 0.459971 0.275577 0.0
C_ C_ 0.571163 0.429073 0.29362 0.0
C_ C_ 0.616315 0.409736 0.287783 0.0
C_ C_ 0.627151 0.382103 0.307375 0.0
C_ C_ 0.584471 0.367275 0.325521 0.0
C_ C_ 0.538691 0.385139 0.328529 0.0
C_ C_ 0.536662 0.418568 0.317205 0.0
C_ C_ 0.517471 0.375013 0.355955 0.0
C_ C_ 0.590708 0.34772 0.351339 0.0
C_ C_ 0.494733 0.264844 0.400815 0.0
C_ C_ 0.515485 0.289785 0.380234 0.0
C_ C_ 0.527649 0.324498 0.390026 0.0
C_ C_ 0.520209 0.333756 0.419746 0.0
C_ C_ 0.502124 0.30753 0.439105 0.0
C_ C_ 0.363117 0.467195 0.330632 0.0
C_ C_ 0.345033 0.462393 0.362085 0.0
C_ C_ 0.614854 0.46576 0.364146 0.0
C_ C_ 0.586231 0.457424 0.390095 0.0
C_ C_ 0.610362 0.441621 0.413616 0.0
C_ C_ 0.34829 0.429694 0.409174 0.0
C_ C_ 0.364339 0.43498 0.379567 0.0
C_ C_ 0.5858 0.417001 0.433597 0.0
C_ C_ 0.343115 0.396821 0.423613 0.0
C_ C_ 0.570052 0.344358 0.012473 0.0
C_ C_ 0.593952 0.372437 0.494067 0.0
C_ C_ 0.612738 0.366998 0.465814 0.0
C_ C_ 0.626444 0.332289 0.458082 0.0
C_ C_ 0.613348 0.305278 0.477705 0.0
C_ C_ 0.440164 0.290064 0.022844 0.0
C_ C_ 0.433329 0.324348 0.0408775 0.0
C_ C_ 0.386055 0.343866 0.0374457 0.0
C_ C_ 0.376836 0.37168 0.0571052 0.0
C_ C_ 0.418378 0.384442 0.0758038 0.0
C_ C_ 0.461561 0.364163 0.0809335 0.0
C_ C_ 0.467817 0.333211 0.0642029 0.0
C_ C_ 0.479557 0.371635 0.109626 0.0
C_ C_ 0.410565 0.40224 0.102435 0.0
C_ C_ 0.491179 0.481467 0.159102 0.0
C_ C_ 0.47046 0.457946 0.137305 0.0
C_ C_ 0.464476 0.421196 0.144834 0.0
C_ C_ 0.490129 0.410297 0.170668 0.0
C_ C_ 0.510267 0.434268 0.191894 0.0
C_ C_ 0.634657 0.288682 0.0836208 0.0
C_ C_ 0.666361 0.298486 0.109814 0.0
C_ C_ 0.38544 0.284368 0.116881 0.0
C_ C_ 0.410469 0.289512 0.144637 0.0
C_ C_ 0.382286 0.304949 0.168161 0.0
C_ C_ 0.669677 0.319643 0.160738 0.0
C_ C_ 0.644083 0.31873 0.1328 0.0
C_ C_ 0.402733 0.323787 0.193266 0.0
C_ C_ 0.665458 0.346272 0.180701 0.0
C_ C_ 0.439757 0.407513 0.261677 0.0
C_ C_ 0.418244 0.376371 0.247679 0.0
C_ C_ 0.384781 0.379204 0.221734 0.0
C_ C_ 0.368636 0.413695 0.215111 0.0
C_ C_ 0.387399 0.443381 0.231517 0.0
N_ N_ 0.520302 0.220057 0.0681813 0.0
N_ N_ 0.447861 0.141939 0.126163 0.0
N_ N_ 0.361924 0.0972277 0.047002 0.0
N_ N_ 0.413713 0.188815 0.995946 0.0
N_ N_ 0.48339 0.0289401 0.315033 0.0
N_ N_ 0.550934 0.101081 0.378954 0.0
N_ N_ 0.622656 0.149827 0.303647 0.0
N_ N_ 0.576944 0.0627459 0.246139 0.0
N_ N_ 0.490141 0.27395 0.430239 0.0
N_ N_ 0.548926 0.351418 0.369706 0.0
N_ N_ 0.622511 0.396339 0.444354 0.0
N_ N_ 0.589056 0.309815 0.503544 0.0
N_ N_ 0.511118 0.470141 0.18477 0.0
N_ N_ 0.446837 0.394035 0.124015 0.0
N_ N_ 0.369403 0.349184 0.202352 0.0
N_ N_ 0.423224 0.440397 0.253421 0.0
O_ O_ 0.467718 0.0161991 0.216812 0.0
O_ O_ 0.415803 0.0360811 0.251171 0.0
O_ O_ 0.366511 0.164175 0.132493 0.0
O_ O_ 0.512356 0.101725 0.126602 0.0
O_ O_ 0.596623 0.0540717 0.174271 0.0
O_ O_ 0.641705 0.00999073 0.183827 0.0
O_ O_ 0.621148 0.105109 0.0583443 0.0
O_ O_ 0.44517 0.0735603 0.0472983 0.0
O_ O_ 0.532311 0.230997 0.470099 0.0
O_ O_ 0.589863 0.215973 0.00186312 0.0
O_ O_ 0.63802 0.0907555 0.387241 0.0
O_ O_ 0.491955 0.147021 0.376454 0.0
O_ O_ 0.407235 0.195701 0.417822 0.0
O_ O_ 0.365324 0.242974 0.422019 0.0
O_ O_ 0.39089 0.151923 0.300191 0.0
O_ O_ 0.543801 0.178016 0.301825 0.0
O_ O_ 0.536219 0.48466 0.286251 0.0
O_ O_ 0.588457 0.465968 0.251218 0.0
O_ O_ 0.636394 0.343467 0.363464 0.0
O_ O_ 0.465074 0.376783 0.362233 0.0
O_ O_ 0.400803 0.449493 0.321938 0.0
O_ O_ 0.354621 0.495259 0.316099 0.0
O_ O_ 0.382961 0.37839 0.426186 0.0
O_ O_ 0.546555 0.427069 0.450883 0.0
O_ O_ 0.465673 0.265752 0.0348178 0.0
O_ O_ 0.41975 0.289547 0.488986 0.0
O_ O_ 0.364351 0.415013 0.1105 0.0
O_ O_ 0.501235 0.346791 0.12451 0.0
O_ O_ 0.593911 0.305057 0.0761762 0.0
O_ O_ 0.644386 0.260696 0.067903 0.0
O_ O_ 0.621584 0.359342 0.188743 0.0
O_ O_ 0.454081 0.325601 0.199063 0.0
Cd Cd 0.560818 0.0128147 0.713704 0.0
Cd Cd 0.436106 0.238276 0.965171 0.0
Cd Cd 0.436249 0.487303 0.785863 0.0
Cd Cd 0.56465 0.261704 0.533738 0.0
H_ H_ 0.441373 0.110285 0.754762 0.0
H_ H_ 0.666435 0.127438 0.688813 0.0
H_ H_ 0.472847 0.0540908 0.672143 0.0
H_ H_ 0.460688 0.236712 0.57454 0.0
H_ H_ 0.433769 0.195127 0.614221 0.0
H_ H_ 0.589571 0.157353 0.609561 0.0
H_ H_ 0.601332 0.186617 0.561613 0.0
H_ H_ 0.396085 0.0127232 0.64858 0.0
H_ H_ 0.446996 0.0284456 0.600598 0.0
H_ H_ 0.60697 0.0765055 0.621755 0.0
H_ H_ 0.418082 0.153558 0.959738 0.0
H_ H_ 0.440723 0.107654 0.512932 0.0
H_ H_ 0.355554 0.182366 0.565362 0.0
H_ H_ 0.366437 0.224281 0.524857 0.0
H_ H_ 0.649438 0.167874 0.97756 0.0
H_ H_ 0.313147 0.104369 0.958038 0.0
H_ H_ 0.497474 0.178917 0.935584 0.0
H_ H_ 0.500325 0.492767 0.848092 0.0
H_ H_ 0.539662 0.0331125 0.882854 0.0
H_ H_ 0.484601 0.12079 0.832354 0.0
H_ H_ 0.445482 0.0736322 0.795838 0.0
H_ H_ 0.59723 0.230517 0.904145 0.0
H_ H_ 0.546031 0.212364 0.859257 0.0
H_ H_ 0.397839 0.173103 0.869494 0.0
H_ H_ 0.558492 0.0965443 0.716706 0.0
H_ H_ 0.583594 0.150907 0.74903 0.0
H_ H_ 0.637401 0.0769226 0.816259 0.0
H_ H_ 0.609851 0.0268063 0.781149 0.0
H_ H_ 0.652218 0.4237 0.777267 0.0
H_ H_ 0.207795 0.333066 0.770656 0.0
H_ H_ 0.490635 0.425025 0.809692 0.0
H_ H_ 0.511021 0.241832 0.910958 0.0
H_ H_ 0.551652 0.281531 0.871555 0.0
H_ H_ 0.482123 0.370401 0.916586 0.0
H_ H_ 0.451045 0.324823 0.959268 0.0
H_ H_ 0.594173 0.473885 0.842499 0.0
H_ H_ 0.547737 0.468527 0.890697 0.0
H_ H_ 0.387382 0.416156 0.875953 0.0
H_ H_ 0.561933 0.348503 0.533929 0.0
H_ H_ 0.569611 0.399917 0.999388 0.0
H_ H_ 0.647064 0.327491 0.939441 0.0
H_ H_ 0.617675 0.277889 0.973222 0.0
H_ H_ 0.440254 0.358549 0.487052 0.0
H_ H_ 0.669672 0.381738 0.557423 0.0
H_ H_ 0.45375 0.306049 0.572919 0.0
H_ H_ 0.496164 0.00782664 0.652721 0.0
H_ H_ 0.465286 0.46858 0.611887 0.0
H_ H_ 0.572131 0.392855 0.644169 0.0
H_ H_ 0.592492 0.430868 0.68713 0.0
H_ H_ 0.37459 0.244553 0.612629 0.0
H_ H_ 0.434645 0.267219 0.652536 0.0
H_ H_ 0.600176 0.319455 0.633885 0.0
H_ H_ 0.341324 0.423663 0.767802 0.0
H_ H_ 0.329801 0.37319 0.732427 0.0
H_ H_ 0.477987 0.402618 0.692886 0.0
H_ H_ 0.492614 0.453139 0.731142 0.0
C_ C_ 0.444317 0.0416109 0.731038 0.0
C_ C_ 0.443945 0.0758044 0.713742 0.0
C_ C_ 0.442006 0.108922 0.730493 0.0
C_ C_ 0.446618 0.142182 0.714571 0.0
C_ C_ 0.453953 0.140228 0.683178 0.0
C_ C_ 0.455054 0.108787 0.668185 0.0
C_ C_ 0.454225 0.0763123 0.682572 0.0
C_ C_ 0.485308 0.116152 0.64241 0.0
C_ C_ 0.480195 0.166603 0.666207 0.0
C_ C_ 0.484519 0.216667 0.579743 0.0
C_ C_ 0.472579 0.195531 0.604174 0.0
C_ C_ 0.509902 0.170592 0.6133 0.0
C_ C_ 0.557575 0.172437 0.600283 0.0
C_ C_ 0.565052 0.18885 0.572754 0.0
C_ C_ 0.633384 0.0374844 0.667658 0.0
C_ C_ 0.665101 0.0447719 0.639971 0.0
C_ C_ 0.378403 0.0284058 0.632313 0.0
C_ C_ 0.407764 0.0405505 0.607413 0.0
C_ C_ 0.386452 0.0637605 0.58801 0.0
C_ C_ 0.669359 0.0667686 0.588552 0.0
C_ C_ 0.644126 0.0655681 0.616903 0.0
C_ C_ 0.416237 0.0880221 0.570584 0.0
C_ C_ 0.665254 0.0939223 0.567494 0.0
C_ C_ 0.416165 0.15647 0.983621 0.0
C_ C_ 0.426299 0.133714 0.51701 0.0
C_ C_ 0.396009 0.141461 0.54239 0.0
C_ C_ 0.381911 0.176827 0.546466 0.0
C_ C_ 0.390917 0.201059 0.523964 0.0
C_ C_ 0.559376 0.20589 0.980367 0.0
C_ C_ 0.569217 0.175317 0.961784 0.0
C_ C_ 0.618776 0.158452 0.962858 0.0
C_ C_ 0.626265 0.12986 0.9427 0.0
C_ C_ 0.58287 0.115398 0.92592 0.0
C_ C_ 0.534695 0.130305 0.92744 0.0
C_ C_ 0.528482 0.162193 0.942136 0.0
C_ C_ 0.510703 0.123034 0.900795 0.0
C_ C_ 0.584967 0.0979585 0.897923 0.0
C_ C_ 0.500051 0.0196521 0.843213 0.0
C_ C_ 0.520786 0.0432572 0.864434 0.0
C_ C_ 0.516595 0.0801095 0.860705 0.0
C_ C_ 0.490459 0.0937038 0.835405 0.0
C_ C_ 0.469096 0.067234 0.814718 0.0
C_ C_ 0.372609 0.217595 0.913325 0.0
C_ C_ 0.344093 0.210123 0.885809 0.0
C_ C_ 0.617383 0.218203 0.885319 0.0
C_ C_ 0.589198 0.208299 0.859344 0.0
C_ C_ 0.61332 0.193551 0.835613 0.0
C_ C_ 0.33656 0.179612 0.836349 0.0
C_ C_ 0.361447 0.183275 0.865251 0.0
C_ C_ 0.588808 0.173294 0.812596 0.0
C_ C_ 0.335849 0.148977 0.819473 0.0
C_ C_ 0.577689 0.0940664 0.737118 0.0
C_ C_ 0.590759 0.123436 0.756466 0.0
C_ C_ 0.611912 0.117254 0.784542 0.0
C_ C_ 0.618379 0.0823596 0.79401 0.0
C_ C_ 0.601872 0.0535899 0.774974 0.0
C_ C_ 0.560095 0.460234 0.773507 0.0
C_ C_ 0.567838 0.425018 0.789456 0.0
C_ C_ 0.617619 0.410013 0.789233 0.0
C_ C_ 0.625572 0.380447 0.806636 0.0
C_ C_ 0.582887 0.364622 0.82504 0.0
C_ C_ 0.533724 0.380579 0.824817 0.0
C_ C_ 0.52382 0.410421 0.807443 0.0
C_ C_ 0.510183 0.373576 0.852336 0.0
C_ C_ 0.587706 0.347893 0.852158 0.0
C_ C_ 0.506891 0.269289 0.911748 0.0
C_ C_ 0.528178 0.292406 0.890099 0.0
C_ C_ 0.522999 0.32955 0.894066 0.0
C_ C_ 0.491146 0.342287 0.91693 0.0
C_ C_ 0.469924 0.317101 0.938624 0.0
C_ C_ 0.364553 0.465594 0.832896 0.0
C_ C_ 0.332291 0.455489 0.860213 0.0
C_ C_ 0.615753 0.465553 0.862676 0.0
C_ C_ 0.588135 0.460173 0.88949 0.0
C_ C_ 0.611903 0.444426 0.914753 0.0
C_ C_ 0.327997 0.424313 0.907448 0.0
C_ C_ 0.354675 0.430629 0.881497 0.0
C_ C_ 0.587818 0.423239 0.93697 0.0
C_ C_ 0.323054 0.391982 0.92099 0.0
C_ C_ 0.576796 0.343496 0.512148 0.0
C_ C_ 0.58037 0.371737 0.993186 0.0
C_ C_ 0.606178 0.3671 0.965171 0.0
C_ C_ 0.621179 0.332897 0.957685 0.0
C_ C_ 0.609656 0.305606 0.978458 0.0
C_ C_ 0.447523 0.295709 0.512968 0.0
C_ C_ 0.442024 0.329172 0.528505 0.0
C_ C_ 0.43506 0.36079 0.511407 0.0
C_ C_ 0.441892 0.393981 0.527097 0.0
C_ C_ 0.452585 0.396286 0.557175 0.0
C_ C_ 0.457904 0.365258 0.573437 0.0
C_ C_ 0.450412 0.331279 0.559475 0.0
C_ C_ 0.491013 0.373603 0.597993 0.0
C_ C_ 0.486502 0.422132 0.571462 0.0
C_ C_ 0.5087 0.481712 0.652193 0.0
C_ C_ 0.497673 0.461877 0.626301 0.0
C_ C_ 0.520762 0.42954 0.62372 0.0
C_ C_ 0.554078 0.417294 0.645479 0.0
C_ C_ 0.567329 0.440002 0.669271 0.0
C_ C_ 0.630304 0.284087 0.585381 0.0
C_ C_ 0.663858 0.294239 0.611462 0.0
C_ C_ 0.374324 0.272715 0.620419 0.0
C_ C_ 0.407675 0.284283 0.643266 0.0
C_ C_ 0.410885 0.32037 0.650816 0.0
C_ C_ 0.671464 0.318349 0.660941 0.0
C_ C_ 0.641982 0.313789 0.63513 0.0
C_ C_ 0.416861 0.331063 0.680387 0.0
C_ C_ 0.668135 0.348014 0.679913 0.0
C_ C_ 0.371966 0.419354 0.750706 0.0
C_ C_ 0.365342 0.390595 0.730704 0.0
C_ C_ 0.402048 0.385998 0.709024 0.0
C_ C_ 0.448229 0.408677 0.708533 0.0
C_ C_ 0.456513 0.43675 0.729775 0.0
N_ N_ 0.532101 0.214927 0.565017 0.0
N_ N_ 0.501951 0.15109 0.642008 0.0
N_ N_ 0.386503 0.116688 0.566282 0.0
N_ N_ 0.418113 0.193977 0.498698 0.0
N_ N_ 0.479118 0.0319024 0.817494 0.0
N_ N_ 0.539871 0.104845 0.883264 0.0
N_ N_ 0.622504 0.147951 0.803747 0.0
N_ N_ 0.57988 0.060027 0.748455 0.0
N_ N_ 0.479546 0.281539 0.934634 0.0
N_ N_ 0.542771 0.353784 0.869002 0.0
N_ N_ 0.621411 0.397358 0.946093 0.0
N_ N_ 0.576699 0.3114 0.00232649 0.0
N_ N_ 0.538624 0.46826 0.675044 0.0
N_ N_ 0.511227 0.408927 0.596275 0.0
N_ N_ 0.391008 0.361305 0.684847 0.0
N_ N_ 0.41781 0.440611 0.750623 0.0
O_ O_ 0.465982 0.0156507 0.718321 0.0
O_ O_ 0.412364 0.0363455 0.752432 0.0
O_ O_ 0.507305 0.196237 0.678594 0.0
O_ O_ 0.515321 0.0918697 0.63143 0.0
O_ O_ 0.592618 0.0536889 0.673642 0.0
O_ O_ 0.63988 0.00957115 0.683008 0.0
O_ O_ 0.626813 0.11641 0.568415 0.0
O_ O_ 0.467772 0.0925571 0.572884 0.0
O_ O_ 0.533044 0.229735 0.968031 0.0
O_ O_ 0.593293 0.214462 0.501223 0.0
O_ O_ 0.629204 0.0943576 0.882649 0.0
O_ O_ 0.456707 0.120029 0.898886 0.0
O_ O_ 0.416191 0.205101 0.918475 0.0
O_ O_ 0.35341 0.235741 0.933568 0.0
O_ O_ 0.381138 0.136781 0.810813 0.0
O_ O_ 0.536243 0.167983 0.80896 0.0
O_ O_ 0.530845 0.48347 0.786378 0.0
O_ O_ 0.587114 0.468541 0.749922 0.0
O_ O_ 0.633294 0.342599 0.864665 0.0
O_ O_ 0.457427 0.367646 0.855849 0.0
O_ O_ 0.409206 0.453082 0.828112 0.0
O_ O_ 0.351524 0.489609 0.815316 0.0
O_ O_ 0.363569 0.374565 0.930598 0.0
O_ O_ 0.536946 0.417976 0.939392 0.0
O_ O_ 0.469803 0.270079 0.525168 0.0
O_ O_ 0.408878 0.280962 1.00233 0.0
O_ O_ 0.504677 0.451194 0.558483 0.0
O_ O_ 0.509943 0.350708 0.615404 0.0
O_ O_ 0.587089 0.296539 0.580396 0.0
O_ O_ 0.645023 0.261837 0.565616 0.0
O_ O_ 0.621789 0.352191 0.693021 0.0
O_ O_ 0.425643 0.308457 0.70208 0.0
Cd Cd 0.562135 0.512118 0.213825 0.0
Cd Cd 0.4366 0.738448 0.464614 0.0
Cd Cd 0.437056 0.987777 0.284176 0.0
Cd Cd 0.563353 0.761528 0.0354313 0.0
H_ H_ 0.349527 0.576935 0.22365 0.0
H_ H_ 0.67053 0.631395 0.192646 0.0
H_ H_ 0.498515 0.565717 0.180175 0.0
H_ H_ 0.496526 0.758197 0.0965783 0.0
H_ H_ 0.457256 0.714679 0.133181 0.0
H_ H_ 0.493874 0.629707 0.072516 0.0
H_ H_ 0.539194 0.675112 0.0387973 0.0
H_ H_ 0.403932 0.520669 0.15503 0.0
H_ H_ 0.455367 0.540768 0.110255 0.0
H_ H_ 0.605259 0.575772 0.119224 0.0
H_ H_ 0.446773 0.653652 0.467338 0.0
H_ H_ 0.42349 0.601084 0.999059 0.0
H_ H_ 0.361751 0.672234 0.0641231 0.0
H_ H_ 0.382256 0.722582 0.030697 0.0
H_ H_ 0.649066 0.670603 0.475771 0.0
H_ H_ 0.333156 0.623338 0.441721 0.0
H_ H_ 0.501205 0.685198 0.429507 0.0
H_ H_ 0.499014 0.987777 0.348224 0.0
H_ H_ 0.546489 0.534047 0.381534 0.0
H_ H_ 0.497189 0.619207 0.325361 0.0
H_ H_ 0.46605 0.5745 0.287897 0.0
H_ H_ 0.59513 0.725822 0.405546 0.0
H_ H_ 0.543435 0.708206 0.360458 0.0
H_ H_ 0.398227 0.678731 0.36767 0.0
H_ H_ 0.551346 0.596432 0.217525 0.0
H_ H_ 0.580478 0.64926 0.247973 0.0
H_ H_ 0.629814 0.578296 0.316631 0.0
H_ H_ 0.623448 0.528948 0.278239 0.0
H_ H_ 0.650636 0.92235 0.276012 0.0
H_ H_ 0.320587 0.859036 0.296604 0.0
H_ H_ 0.502488 0.934789 0.321284 0.0
H_ H_ 0.497109 0.74129 0.401538 0.0
H_ H_ 0.543898 0.785384 0.367369 0.0
H_ H_ 0.5063 0.869152 0.42694 0.0
H_ H_ 0.458579 0.824954 0.460241 0.0
H_ H_ 0.595785 0.977327 0.344703 0.0
H_ H_ 0.543547 0.956718 0.390261 0.0
H_ H_ 0.390037 0.919858 0.379336 0.0
H_ H_ 0.548351 0.846462 0.0313785 0.0
H_ H_ 0.576232 0.899051 0.500915 0.0
H_ H_ 0.63747 0.828935 0.434853 0.0
H_ H_ 0.622219 0.778929 0.470444 0.0
H_ H_ 0.351993 0.829735 0.0242588 0.0
H_ H_ 0.665969 0.873094 0.0644096 0.0
H_ H_ 0.498892 0.815178 0.0702528 0.0
H_ H_ 0.500395 0.508413 0.152338 0.0
H_ H_ 0.455477 0.964791 0.117439 0.0
H_ H_ 0.499181 0.879969 0.175644 0.0
H_ H_ 0.53885 0.925225 0.2109 0.0
H_ H_ 0.402979 0.77026 0.0952161 0.0
H_ H_ 0.455113 0.786785 0.141306 0.0
H_ H_ 0.604364 0.824876 0.131063 0.0
H_ H_ 0.445366 0.903364 0.28328 0.0
H_ H_ 0.423131 0.850974 0.251095 0.0
H_ H_ 0.360554 0.920902 0.185192 0.0
H_ H_ 0.381605 0.971767 0.219611 0.0
C_ C_ 0.43868 0.539998 0.227052 0.0
C_ C_ 0.42932 0.570771 0.207483 0.0
C_ C_ 0.381853 0.588822 0.210019 0.0
C_ C_ 0.372918 0.617352 0.190542 0.0
C_ C_ 0.414437 0.63051 0.171853 0.0
C_ C_ 0.4608 0.613273 0.169669 0.0
C_ C_ 0.466734 0.581574 0.185219 0.0
C_ C_ 0.481436 0.620719 0.141473 0.0
C_ C_ 0.408884 0.648598 0.145016 0.0
C_ C_ 0.497609 0.730298 0.0920919 0.0
C_ C_ 0.472407 0.705623 0.111814 0.0
C_ C_ 0.471479 0.669032 0.105206 0.0
C_ C_ 0.49651 0.658066 0.0790275 0.0
C_ C_ 0.51981 0.683656 0.0593936 0.0
C_ C_ 0.634705 0.53623 0.167278 0.0
C_ C_ 0.665401 0.544726 0.139664 0.0
C_ C_ 0.384406 0.533773 0.136493 0.0
C_ C_ 0.413353 0.541779 0.110068 0.0
C_ C_ 0.387771 0.557109 0.0859562 0.0
C_ C_ 0.669945 0.568029 0.0889766 0.0
C_ C_ 0.642605 0.56379 0.116129 0.0
C_ C_ 0.413024 0.579403 0.0648629 0.0
C_ C_ 0.666112 0.596676 0.0696897 0.0
C_ C_ 0.430381 0.657225 0.489051 0.0
C_ C_ 0.416542 0.62753 0.00700845 0.0
C_ C_ 0.392127 0.632198 0.0347975 0.0
C_ C_ 0.380366 0.666644 0.0436273 0.0
C_ C_ 0.394123 0.695648 0.0247575 0.0
C_ C_ 0.56132 0.710002 0.477052 0.0
C_ C_ 0.57068 0.679229 0.457483 0.0
C_ C_ 0.618147 0.661178 0.460019 0.0
C_ C_ 0.627082 0.632648 0.440542 0.0
C_ C_ 0.585563 0.61949 0.421853 0.0
C_ C_ 0.5392 0.636727 0.419669 0.0
C_ C_ 0.533266 0.668426 0.435219 0.0
C_ C_ 0.518564 0.629281 0.391473 0.0
C_ C_ 0.591116 0.601402 0.395016 0.0
C_ C_ 0.502391 0.519702 0.342092 0.0
C_ C_ 0.527593 0.544377 0.361814 0.0
C_ C_ 0.528521 0.580968 0.355206 0.0
C_ C_ 0.50349 0.591934 0.329027 0.0
C_ C_ 0.48019 0.566344 0.309394 0.0
C_ C_ 0.365295 0.71377 0.417278 0.0
C_ C_ 0.334599 0.705274 0.389664 0.0
C_ C_ 0.615594 0.716227 0.386493 0.0
C_ C_ 0.586647 0.708221 0.360068 0.0
C_ C_ 0.612229 0.692891 0.335956 0.0
C_ C_ 0.330055 0.681971 0.338977 0.0
C_ C_ 0.357395 0.68621 0.366129 0.0
C_ C_ 0.586976 0.670597 0.314863 0.0
C_ C_ 0.333888 0.653324 0.31969 0.0
C_ C_ 0.569619 0.592775 0.239051 0.0
C_ C_ 0.583458 0.62247 0.257008 0.0
C_ C_ 0.607873 0.617802 0.284798 0.0
C_ C_ 0.619634 0.583356 0.293627 0.0
C_ C_ 0.605877 0.554352 0.274758 0.0
C_ C_ 0.56132 0.960002 0.272948 0.0
C_ C_ 0.57068 0.929229 0.292517 0.0
C_ C_ 0.618147 0.911178 0.289981 0.0
C_ C_ 0.627082 0.882648 0.309458 0.0
C_ C_ 0.585563 0.86949 0.328147 0.0
C_ C_ 0.5392 0.886727 0.330331 0.0
C_ C_ 0.533266 0.918426 0.314781 0.0
C_ C_ 0.518564 0.879281 0.358527 0.0
C_ C_ 0.591116 0.851402 0.354984 0.0
C_ C_ 0.502391 0.769702 0.407908 0.0
C_ C_ 0.527593 0.794377 0.388186 0.0
C_ C_ 0.528521 0.830968 0.394794 0.0
C_ C_ 0.50349 0.841934 0.420973 0.0
C_ C_ 0.48019 0.816344 0.440606 0.0
C_ C_ 0.365295 0.96377 0.332722 0.0
C_ C_ 0.334599 0.955274 0.360336 0.0
C_ C_ 0.615594 0.966227 0.363507 0.0
C_ C_ 0.586647 0.958221 0.389932 0.0
C_ C_ 0.612229 0.942891 0.414044 0.0
C_ C_ 0.330055 0.931971 0.411023 0.0
C_ C_ 0.357395 0.93621 0.383871 0.0
C_ C_ 0.586976 0.920597 0.435137 0.0
C_ C_ 0.333888 0.903324 0.43031 0.0
C_ C_ 0.569619 0.842775 0.010949 0.0
C_ C_ 0.583458 0.87247 0.492992 0.0
C_ C_ 0.607873 0.867802 0.465202 0.0
C_ C_ 0.619634 0.833356 0.456373 0.0
C_ C_ 0.605877 0.804352 0.475242 0.0
C_ C_ 0.43868 0.789998 0.0229477 0.0
C_ C_ 0.42932 0.820771 0.0425173 0.0
C_ C_ 0.381853 0.838822 0.0399812 0.0
C_ C_ 0.372918 0.867352 0.0594584 0.0
C_ C_ 0.414437 0.88051 0.0781469 0.0
C_ C_ 0.4608 0.863273 0.0803307 0.0
C_ C_ 0.466734 0.831574 0.0647812 0.0
C_ C_ 0.481436 0.870719 0.108527 0.0
C_ C_ 0.408884 0.898598 0.104984 0.0
C_ C_ 0.497609 0.980298 0.157908 0.0
C_ C_ 0.472407 0.955623 0.138186 0.0
C_ C_ 0.471479 0.919032 0.144794 0.0
C_ C_ 0.49651 0.908066 0.170973 0.0
C_ C_ 0.51981 0.933656 0.190606 0.0
C_ C_ 0.634705 0.78623 0.0827219 0.0
C_ C_ 0.665401 0.794726 0.110336 0.0
C_ C_ 0.384406 0.783773 0.113507 0.0
C_ C_ 0.413353 0.791779 0.139932 0.0
C_ C_ 0.387771 0.807109 0.164044 0.0
C_ C_ 0.669945 0.818029 0.161023 0.0
C_ C_ 0.642605 0.81379 0.133871 0.0
C_ C_ 0.413024 0.829403 0.185137 0.0
C_ C_ 0.666112 0.846676 0.18031 0.0
C_ C_ 0.430381 0.907225 0.260949 0.0
C_ C_ 0.416542 0.87753 0.242992 0.0
C_ C_ 0.392127 0.882198 0.215202 0.0
C_ C_ 0.380366 0.916644 0.206373 0.0
C_ C_ 0.394123 0.945648 0.225242 0.0
N_ N_ 0.519601 0.719087 0.066102 0.0
N_ N_ 0.450277 0.642872 0.126543 0.0
N_ N_ 0.378193 0.601806 0.0536496 0.0
N_ N_ 0.420902 0.690701 0.9986 0.0
N_ N_ 0.480399 0.530913 0.316102 0.0
N_ N_ 0.549723 0.607128 0.376543 0.0
N_ N_ 0.621807 0.648194 0.30365 0.0
N_ N_ 0.579098 0.559299 0.2486 0.0
N_ N_ 0.480399 0.780913 0.433898 0.0
N_ N_ 0.549723 0.857128 0.373457 0.0
N_ N_ 0.621807 0.898194 0.44635 0.0
N_ N_ 0.579098 0.809299 0.5014 0.0
N_ N_ 0.519601 0.969087 0.183898 0.0
N_ N_ 0.450277 0.892872 0.123457 0.0
N_ N_ 0.378193 0.851806 0.19635 0.0
N_ N_ 0.420902 0.940701 0.2514 0.0
O_ O_ 0.465517 0.514997 0.217173 0.0
O_ O_ 0.410651 0.534476 0.250578 0.0
O_ O_ 0.362123 0.655721 0.134274 0.0
O_ O_ 0.532653 0.620132 0.13586 0.0
O_ O_ 0.59232 0.551058 0.172831 0.0
O_ O_ 0.645557 0.510599 0.184197 0.0
O_ O_ 0.620206 0.605994 0.059287 0.0
O_ O_ 0.454156 0.569983 0.0492879 0.0
O_ O_ 0.534483 0.735003 0.467173 0.0
O_ O_ 0.589349 0.715524 0.000578323 0.0
O_ O_ 0.637877 0.594279 0.384274 0.0
O_ O_ 0.467347 0.629868 0.38586 0.0
O_ O_ 0.40768 0.698942 0.422831 0.0
O_ O_ 0.354443 0.739401 0.434197 0.0
O_ O_ 0.379794 0.644007 0.309287 0.0
O_ O_ 0.545844 0.680017 0.299288 0.0
O_ O_ 0.534483 0.985003 0.282827 0.0
O_ O_ 0.589349 0.965524 0.249422 0.0
O_ O_ 0.637877 0.844279 0.365726 0.0
O_ O_ 0.467347 0.879868 0.36414 0.0
O_ O_ 0.40768 0.948942 0.327169 0.0
O_ O_ 0.354443 0.989401 0.315803 0.0
O_ O_ 0.379794 0.894007 0.440713 0.0
O_ O_ 0.545844 0.930017 0.450712 0.0
O_ O_ 0.465517 0.764997 0.032827 0.0
O_ O_ 0.410651 0.784476 0.499422 0.0
O_ O_ 0.362123 0.905721 0.115726 0.0
O_ O_ 0.532653 0.870132 0.11414 0.0
O_ O_ 0.59232 0.801058 0.0771694 0.0
O_ O_ 0.645557 0.760599 0.0658027 0.0
O_ O_ 0.620206 0.855994 0.190713 0.0
O_ O_ 0.454156 0.819983 0.200712 0.0
Cd Cd 0.563502 0.511719 0.71467 0.0
Cd Cd 0.436498 0.738281 0.96467 0.0
Cd Cd 0.436498 0.988281 0.78533 0.0
Cd Cd 0.563502 0.761719 0.53533 0.0
H_ H_ 0.351294 0.579745 0.725897 0.0
H_ H_ 0.668104 0.629013 0.690298 0.0
H_ H_ 0.498892 0.565178 0.679747 0.0
H_ H_ 0.500395 0.758413 0.597662 0.0
H_ H_ 0.455477 0.714791 0.632561 0.0
H_ H_ 0.499181 0.629969 0.574356 0.0
H_ H_ 0.53885 0.675225 0.5391 0.0
H_ H_ 0.402979 0.52026 0.654784 0.0
H_ H_ 0.455113 0.536785 0.608694 0.0
H_ H_ 0.604364 0.574876 0.618937 0.0
H_ H_ 0.445366 0.653364 0.96672 0.0
H_ H_ 0.423131 0.600974 0.498905 0.0
H_ H_ 0.360554 0.670902 0.564808 0.0
H_ H_ 0.381605 0.721767 0.530389 0.0
H_ H_ 0.648706 0.670255 0.975897 0.0
H_ H_ 0.331896 0.620987 0.940298 0.0
H_ H_ 0.501108 0.684822 0.929747 0.0
H_ H_ 0.499605 0.991587 0.847662 0.0
H_ H_ 0.544523 0.535209 0.882561 0.0
H_ H_ 0.500819 0.620031 0.824356 0.0
H_ H_ 0.46115 0.574775 0.7891 0.0
H_ H_ 0.597021 0.72974 0.904784 0.0
H_ H_ 0.544887 0.713215 0.858694 0.0
H_ H_ 0.395636 0.675124 0.868937 0.0
H_ H_ 0.554634 0.596636 0.71672 0.0
H_ H_ 0.576869 0.649026 0.748905 0.0
H_ H_ 0.639446 0.579098 0.814808 0.0
H_ H_ 0.618395 0.528233 0.780389 0.0
H_ H_ 0.648706 0.920255 0.774103 0.0
H_ H_ 0.331896 0.870987 0.809702 0.0
H_ H_ 0.501108 0.934822 0.820253 0.0
H_ H_ 0.499605 0.741587 0.902338 0.0
H_ H_ 0.544523 0.785209 0.867439 0.0
H_ H_ 0.500819 0.870031 0.925644 0.0
H_ H_ 0.46115 0.824775 0.9609 0.0
H_ H_ 0.597021 0.97974 0.845216 0.0
H_ H_ 0.544887 0.963215 0.891306 0.0
H_ H_ 0.395636 0.925124 0.881063 0.0
H_ H_ 0.554634 0.846636 0.53328 0.0
H_ H_ 0.576869 0.899026 0.00109454 0.0
H_ H_ 0.639446 0.829098 0.935192 0.0
H_ H_ 0.618395 0.778233 0.969611 0.0
H_ H_ 0.351294 0.829745 0.524103 0.0
H_ H_ 0.668104 0.879013 0.559702 0.0
H_ H_ 0.498892 0.815178 0.570253 0.0
H_ H_ 0.500395 0.508413 0.652338 0.0
H_ H_ 0.455477 0.964791 0.617439 0.0
H_ H_ 0.499181 0.879969 0.675644 0.0
H_ H_ 0.53885 0.925225 0.7109 0.0
H_ H_ 0.402979 0.77026 0.595216 0.0
H_ H_ 0.455113 0.786785 0.641306 0.0
H_ H_ 0.604364 0.824876 0.631063 0.0
H_ H_ 0.445366 0.903364 0.78328 0.0
H_ H_ 0.423131 0.850974 0.751095 0.0
H_ H_ 0.360554 0.920902 0.685192 0.0
H_ H_ 0.381605 0.971767 0.719611 0.0
C_ C_ 0.43868 0.539998 0.727052 0.0
C_ C_ 0.42932 0.570771 0.707483 0.0
C_ C_ 0.381853 0.588822 0.710019 0.0
C_ C_ 0.372918 0.617352 0.690542 0.0
C_ C_ 0.414437 0.63051 0.671853 0.0
C_ C_ 0.4608 0.613273 0.669669 0.0
C_ C_ 0.466734 0.581574 0.685219 0.0
C_ C_ 0.481436 0.620719 0.641473 0.0
C_ C_ 0.408884 0.648598 0.645016 0.0
C_ C_ 0.497609 0.730298 0.592092 0.0
C_ C_ 0.472407 0.705623 0.611814 0.0
C_ C_ 0.471479 0.669032 0.605206 0.0
C_ C_ 0.49651 0.658066 0.579027 0.0
C_ C_ 0.51981 0.683656 0.559394 0.0
C_ C_ 0.634705 0.53623 0.667278 0.0
C_ C_ 0.665401 0.544726 0.639664 0.0
C_ C_ 0.384406 0.533773 0.636493 0.0
C_ C_ 0.413353 0.541779 0.610068 0.0
C_ C_ 0.387771 0.557109 0.585956 0.0
C_ C_ 0.669945 0.568029 0.588977 0.0
C_ C_ 0.642605 0.56379 0.616129 0.0
C_ C_ 0.413024 0.579403 0.564863 0.0
C_ C_ 0.666112 0.596676 0.56969 0.0
C_ C_ 0.430381 0.657225 0.989051 0.0
C_ C_ 0.416542 0.62753 0.507008 0.0
C_ C_ 0.392127 0.632198 0.534798 0.0
C_ C_ 0.380366 0.666644 0.543627 0.0
C_ C_ 0.394123 0.695648 0.524758 0.0
C_ C_ 0.56132 0.710002 0.977052 0.0
C_ C_ 0.57068 0.679229 0.957483 0.0
C_ C_ 0.618147 0.661178 0.960019 0.0
C_ C_ 0.627082 0.632648 0.940542 0.0
C_ C_ 0.585563 0.61949 0.921853 0.0
C_ C_ 0.5392 0.636727 0.919669 0.0
C_ C_ 0.533266 0.668426 0.935219 0.0
C_ C_ 0.518564 0.629281 0.891473 0.0
C_ C_ 0.591116 0.601402 0.895016 0.0
C_ C_ 0.502391 0.519702 0.842092 0.0
C_ C_ 0.527593 0.544377 0.861814 0.0
C_ C_ 0.528521 0.580968 0.855206 0.0
C_ C_ 0.50349 0.591934 0.829027 0.0
C_ C_ 0.48019 0.566344 0.809394 0.0
C_ C_ 0.365295 0.71377 0.917278 0.0
C_ C_ 0.334599 0.705274 0.889664 0.0
C_ C_ 0.615594 0.716227 0.886493 0.0
C_ C_ 0.586647 0.708221 0.860068 0.0
C_ C_ 0.612229 0.692891 0.835956 0.0
C_ C_ 0.330055 0.681971 0.838977 0.0
C_ C_ 0.357395 0.68621 0.866129 0.0
C_ C_ 0.586976 0.670597 0.814863 0.0
C_ C_ 0.333888 0.653324 0.81969 0.0
C_ C_ 0.569619 0.592775 0.739051 0.0
C_ C_ 0.583458 0.62247 0.757008 0.0
C_ C_ 0.607873 0.617802 0.784798 0.0
C_ C_ 0.619634 0.583356 0.793627 0.0
C_ C_ 0.605877 0.554352 0.774758 0.0
C_ C_ 0.56132 0.960002 0.772948 0.0
C_ C_ 0.57068 0.929229 0.792517 0.0
C_ C_ 0.618147 0.911178 0.789981 0.0
C_ C_ 0.627082 0.882648 0.809458 0.0
C_ C_ 0.585563 0.86949 0.828147 0.0
C_ C_ 0.5392 0.886727 0.830331 0.0
C_ C_ 0.533266 0.918426 0.814781 0.0
C_ C_ 0.518564 0.879281 0.858527 0.0
C_ C_ 0.591116 0.851402 0.854984 0.0
C_ C_ 0.502391 0.769702 0.907908 0.0
C_ C_ 0.527593 0.794377 0.888186 0.0
C_ C_ 0.528521 0.830968 0.894794 0.0
C_ C_ 0.50349 0.841934 0.920973 0.0
C_ C_ 0.48019 0.816344 0.940606 0.0
C_ C_ 0.365295 0.96377 0.832722 0.0
C_ C_ 0.334599 0.955274 0.860336 0.0
C_ C_ 0.615594 0.966227 0.863507 0.0
C_ C_ 0.586647 0.958221 0.889932 0.0
C_ C_ 0.612229 0.942891 0.914044 0.0
C_ C_ 0.330055 0.931971 0.911023 0.0
C_ C_ 0.357395 0.93621 0.883871 0.0
C_ C_ 0.586976 0.920597 0.935137 0.0
C_ C_ 0.333888 0.903324 0.93031 0.0
C_ C_ 0.569619 0.842775 0.510949 0.0
C_ C_ 0.583458 0.87247 0.992992 0.0
C_ C_ 0.607873 0.867802 0.965202 0.0
C_ C_ 0.619634 0.833356 0.956373 0.0
C_ C_ 0.605877 0.804352 0.975242 0.0
C_ C_ 0.43868 0.789998 0.522948 0.0
C_ C_ 0.42932 0.820771 0.542517 0.0
C_ C_ 0.381853 0.838822 0.539981 0.0
C_ C_ 0.372918 0.867352 0.559458 0.0
C_ C_ 0.414437 0.88051 0.578147 0.0
C_ C_ 0.4608 0.863273 0.580331 0.0
C_ C_ 0.466734 0.831574 0.564781 0.0
C_ C_ 0.481436 0.870719 0.608527 0.0
C_ C_ 0.408884 0.898598 0.604984 0.0
C_ C_ 0.497609 0.980298 0.657908 0.0
C_ C_ 0.472407 0.955623 0.638186 0.0
C_ C_ 0.471479 0.919032 0.644794 0.0
C_ C_ 0.49651 0.908066 0.670973 0.0
C_ C_ 0.51981 0.933656 0.690606 0.0
C_ C_ 0.634705 0.78623 0.582722 0.0
C_ C_ 0.665401 0.794726 0.610336 0.0
C_ C_ 0.384406 0.783773 0.613507 0.0
C_ C_ 0.413353 0.791779 0.639932 0.0
C_ C_ 0.387771 0.807109 0.664044 0.0
C_ C_ 0.669945 0.818029 0.661023 0.0
C_ C_ 0.642605 0.81379 0.633871 0.0
C_ C_ 0.413024 0.829403 0.685137 0.0
C_ C_ 0.666112 0.846676 0.68031 0.0
C_ C_ 0.430381 0.907225 0.760949 0.0
C_ C_ 0.416542 0.87753 0.742992 0.0
C_ C_ 0.392127 0.882198 0.715202 0.0
C_ C_ 0.380366 0.916644 0.706373 0.0
C_ C_ 0.394123 0.945648 0.725242 0.0
N_ N_ 0.519601 0.719087 0.566102 0.0
N_ N_ 0.450277 0.642872 0.626543 0.0
N_ N_ 0.378193 0.601806 0.55365 0.0
N_ N_ 0.420902 0.690701 0.4986 0.0
N_ N_ 0.480399 0.530913 0.816102 0.0
N_ N_ 0.549723 0.607128 0.876543 0.0
N_ N_ 0.621807 0.648194 0.80365 0.0
N_ N_ 0.579098 0.559299 0.7486 0.0
N_ N_ 0.480399 0.780913 0.933898 0.0
N_ N_ 0.549723 0.857128 0.873457 0.0
N_ N_ 0.621807 0.898194 0.94635 0.0
N_ N_ 0.579098 0.809299 0.00139979 0.0
N_ N_ 0.519601 0.969087 0.683898 0.0
N_ N_ 0.450277 0.892872 0.623457 0.0
N_ N_ 0.378193 0.851806 0.69635 0.0
N_ N_ 0.420902 0.940701 0.7514 0.0
O_ O_ 0.465517 0.514997 0.717173 0.0
O_ O_ 0.410651 0.534476 0.750578 0.0
O_ O_ 0.362123 0.655721 0.634274 0.0
O_ O_ 0.532653 0.620132 0.63586 0.0
O_ O_ 0.59232 0.551058 0.672831 0.0
O_ O_ 0.645557 0.510599 0.684197 0.0
O_ O_ 0.620206 0.605994 0.559287 0.0
O_ O_ 0.454156 0.569983 0.549288 0.0
O_ O_ 0.534483 0.735003 0.967173 0.0
O_ O_ 0.589349 0.715524 0.500578 0.0
O_ O_ 0.637877 0.594279 0.884274 0.0
O_ O_ 0.467347 0.629868 0.88586 0.0
O_ O_ 0.40768 0.698942 0.922831 0.0
O_ O_ 0.354443 0.739401 0.934197 0.0
O_ O_ 0.379794 0.644007 0.809287 0.0
O_ O_ 0.545844 0.680017 0.799288 0.0
O_ O_ 0.534483 0.985003 0.782827 0.0
O_ O_ 0.589349 0.965524 0.749422 0.0
O_ O_ 0.637877 0.844279 0.865726 0.0
O_ O_ 0.467347 0.879868 0.86414 0.0
O_ O_ 0.40768 0.948942 0.827169 0.0
O_ O_ 0.354443 0.989401 0.815803 0.0
O_ O_ 0.379794 0.894007 0.940713 0.0
O_ O_ 0.545844 0.930017 0.950712 0.0
O_ O_ 0.465517 0.764997 0.532827 0.0
O_ O_ 0.410651 0.784476 0.999422 0.0
O_ O_ 0.362123 0.905721 0.615726 0.0
O_ O_ 0.532653 0.870132 0.61414 0.0
O_ O_ 0.59232 0.801058 0.577169 0.0
O_ O_ 0.645557 0.760599 0.565803 0.0
O_ O_ 0.620206 0.855994 0.690713 0.0
O_ O_ 0.454156 0.819983 0.700712 0.0
Cd Cd 0.896835 0.0117191 0.21467 0.0
Cd Cd 0.769832 0.238281 0.46467 0.0
Cd Cd 0.769832 0.488281 0.28533 0.0
Cd Cd 0.896835 0.261719 0.0353296 0.0
H_ H_ 0.684627 0.0797452 0.225897 0.0
H_ H_ 0.00143726 0.129013 0.190298 0.0
H_ H_ 0.832225 0.0651784 0.179747 0.0
H_ H_ 0.833728 0.258413 0.0976618 0.0
H_ H_ 0.78881 0.214791 0.132561 0.0
H_ H_ 0.832514 0.129969 0.0743557 0.0
H_ H_ 0.872183 0.175225 0.0391002 0.0
H_ H_ 0.736312 0.0202596 0.154784 0.0
H_ H_ 0.788447 0.0367846 0.108694 0.0
H_ H_ 0.937697 0.0748764 0.118937 0.0
H_ H_ 0.778699 0.153364 0.46672 0.0
H_ H_ 0.756465 0.100974 0.998905 0.0
H_ H_ 0.693888 0.170902 0.0648075 0.0
H_ H_ 0.714938 0.221767 0.0303887 0.0
H_ H_ 0.98204 0.170255 0.475897 0.0
H_ H_ 0.665229 0.120987 0.440298 0.0
H_ H_ 0.834442 0.184822 0.429747 0.0
H_ H_ 0.832939 0.491587 0.347662 0.0
H_ H_ 0.877857 0.035209 0.382561 0.0
H_ H_ 0.834153 0.120031 0.324356 0.0
H_ H_ 0.794483 0.0747749 0.2891 0.0
H_ H_ 0.930355 0.22974 0.404784 0.0
H_ H_ 0.87822 0.213215 0.358694 0.0
H_ H_ 0.728969 0.175124 0.368937 0.0
H_ H_ 0.887968 0.0966362 0.21672 0.0
H_ H_ 0.910202 0.149026 0.248905 0.0
H_ H_ 0.972779 0.0790981 0.314808 0.0
H_ H_ 0.951728 0.0282328 0.280389 0.0
H_ H_ 0.98204 0.420255 0.274103 0.0
H_ H_ 0.665229 0.370987 0.309702 0.0
H_ H_ 0.834442 0.434822 0.320253 0.0
H_ H_ 0.832939 0.241587 0.402338 0.0
H_ H_ 0.877857 0.285209 0.367439 0.0
H_ H_ 0.834153 0.370031 0.425644 0.0
H_ H_ 0.794483 0.324775 0.4609 0.0
H_ H_ 0.930355 0.47974 0.345216 0.0
H_ H_ 0.87822 0.463215 0.391306 0.0
H_ H_ 0.728969 0.425124 0.381063 0.0
H_ H_ 0.887968 0.346636 0.0332805 0.0
H_ H_ 0.910202 0.399026 0.501095 0.0
H_ H_ 0.972779 0.329098 0.435192 0.0
H_ H_ 0.951728 0.278233 0.469611 0.0
H_ H_ 0.684627 0.329745 0.0241033 0.0
H_ H_ 0.00143727 0.379013 0.0597022 0.0
H_ H_ 0.832225 0.315178 0.0702528 0.0
H_ H_ 0.833728 0.00841344 0.152338 0.0
H_ H_ 0.78881 0.464791 0.117439 0.0
H_ H_ 0.832514 0.379969 0.175644 0.0
H_ H_ 0.872183 0.425225 0.2109 0.0
H_ H_ 0.736312 0.27026 0.0952161 0.0
H_ H_ 0.788447 0.286785 0.141306 0.0
H_ H_ 0.937697 0.324876 0.131063 0.0
H_ H_ 0.778699 0.403364 0.28328 0.0
H_ H_ 0.756465 0.350974 0.251095 0.0
H_ H_ 0.693888 0.420902 0.185192 0.0
H_ H_ 0.714938 0.471767 0.219611 0.0
C_ C_ 0.772014 0.0399984 0.227052 0.0
C_ C_ 0.762653 0.0707715 0.207483 0.0
C_ C_ 0.715187 0.0888219 0.210019 0.0
C_ C_ 0.706251 0.117352 0.190542 0.0
C_ C_ 0.747771 0.13051 0.171853 0.0
C_ C_ 0.794133 0.113273 0.169669 0.0
C_ C_ 0.800068 0.0815736 0.185219 0.0
C_ C_ 0.814769 0.120719 0.141473 0.0
C_ C_ 0.742217 0.148598 0.145016 0.0
C_ C_ 0.830943 0.230298 0.0920919 0.0
C_ C_ 0.80574 0.205623 0.111814 0.0
C_ C_ 0.804812 0.169032 0.105206 0.0
C_ C_ 0.829843 0.158066 0.0790275 0.0
C_ C_ 0.853144 0.183656 0.0593936 0.0
C_ C_ 0.968039 0.0362297 0.167278 0.0
C_ C_ 0.998734 0.0447258 0.139664 0.0
C_ C_ 0.717739 0.0337728 0.136493 0.0
C_ C_ 0.746686 0.0417792 0.110068 0.0
C_ C_ 0.721104 0.0571085 0.0859562 0.0
C_ C_ 0.00327862 0.0680289 0.0889766 0.0
C_ C_ 0.975938 0.0637899 0.116129 0.0
C_ C_ 0.746357 0.0794027 0.0648629 0.0
C_ C_ 0.999445 0.0966762 0.0696897 0.0
C_ C_ 0.763715 0.157225 0.489051 0.0
C_ C_ 0.749875 0.12753 0.00700845 0.0
C_ C_ 0.725461 0.132198 0.0347975 0.0
C_ C_ 0.713699 0.166644 0.0436273 0.0
C_ C_ 0.727456 0.195648 0.0247575 0.0
C_ C_ 0.894653 0.210002 0.477052 0.0
C_ C_ 0.904014 0.179229 0.457483 0.0
C_ C_ 0.95148 0.161178 0.460019 0.0
C_ C_ 0.960415 0.132648 0.440542 0.0
C_ C_ 0.918896 0.11949 0.421853 0.0
C_ C_ 0.872534 0.136727 0.419669 0.0
C_ C_ 0.866599 0.168426 0.435219 0.0
C_ C_ 0.851898 0.129281 0.391473 0.0
C_ C_ 0.924449 0.101402 0.395016 0.0
C_ C_ 0.835724 0.0197024 0.342092 0.0
C_ C_ 0.860926 0.044377 0.361814 0.0
C_ C_ 0.861855 0.0809681 0.355206 0.0
C_ C_ 0.836823 0.0919345 0.329027 0.0
C_ C_ 0.813523 0.0663441 0.309394 0.0
C_ C_ 0.698628 0.21377 0.417278 0.0
C_ C_ 0.667933 0.205274 0.389664 0.0
C_ C_ 0.948927 0.216227 0.386493 0.0
C_ C_ 0.91998 0.208221 0.360068 0.0
C_ C_ 0.945562 0.192891 0.335956 0.0
C_ C_ 0.663388 0.181971 0.338977 0.0
C_ C_ 0.690729 0.18621 0.366129 0.0
C_ C_ 0.92031 0.170597 0.314863 0.0
C_ C_ 0.667221 0.153324 0.31969 0.0
C_ C_ 0.902952 0.0927748 0.239051 0.0
C_ C_ 0.916792 0.12247 0.257008 0.0
C_ C_ 0.941206 0.117802 0.284798 0.0
C_ C_ 0.952968 0.0833558 0.293627 0.0
C_ C_ 0.93921 0.0543523 0.274758 0.0
C_ C_ 0.894653 0.460002 0.272948 0.0
C_ C_ 0.904014 0.429229 0.292517 0.0
C_ C_ 0.95148 0.411178 0.289981 0.0
C_ C_ 0.960415 0.382648 0.309458 0.0
C_ C_ 0.918896 0.36949 0.328147 0.0
C_ C_ 0.872534 0.386727 0.330331 0.0
C_ C_ 0.866599 0.418426 0.314781 0.0
C_ C_ 0.851898 0.379281 0.358527 0.0
C_ C_ 0.924449 0.351402 0.354984 0.0
C_ C_ 0.835724 0.269702 0.407908 0.0
C_ C_ 0.860926 0.294377 0.388186 0.0
C_ C_ 0.861855 0.330968 0.394794 0.0
C_ C_ 0.836823 0.341934 0.420973 0.0
C_ C_ 0.813523 0.316344 0.440606 0.0
C_ C_ 0.698628 0.46377 0.332722 0.0
C_ C_ 0.667933 0.455274 0.360336 0.0
C_ C_ 0.948927 0.466227 0.363507 0.0
C_ C_ 0.91998 0.458221 0.389932 0.0
C_ C_ 0.945562 0.442891 0.414044 0.0
C_ C_ 0.663388 0.431971 0.411023 0.0
C_ C_ 0.690729 0.43621 0.383871 0.0
C_ C_ 0.92031 0.420597 0.435137 0.0
C_ C_ 0.667221 0.403324 0.43031 0.0
C_ C_ 0.902952 0.342775 0.010949 0.0
C_ C_ 0.916792 0.37247 0.492992 0.0
C_ C_ 0.941206 0.367802 0.465202 0.0
C_ C_ 0.952968 0.333356 0.456373 0.0
C_ C_ 0.93921 0.304352 0.475242 0.0
C_ C_ 0.772014 0.289998 0.0229477 0.0
C_ C_ 0.762653 0.320771 0.0425173 0.0
C_ C_ 0.715187 0.338822 0.0399812 0.0
C_ C_ 0.706251 0.367352 0.0594584 0.0
C_ C_ 0.747771 0.38051 0.0781469 0.0
C_ C_ 0.794133 0.363273 0.0803307 0.0
C_ C_ 0.800068 0.331574 0.0647813 0.0
C_ C_ 0.814769 0.370719 0.108527 0.0
C_ C_ 0.742217 0.398598 0.104984 0.0
C_ C_ 0.830943 0.480298 0.157908 0.0
C_ C_ 0.80574 0.455623 0.138186 0.0
C_ C_ 0.804812 0.419032 0.144794 0.0
C_ C_ 0.829843 0.408066 0.170973 0.0
C_ C_ 0.853144 0.433656 0.190606 0.0
C_ C_ 0.968039 0.28623 0.0827219 0.0
C_ C_ 0.998734 0.294726 0.110336 0.0
C_ C_ 0.717739 0.283773 0.113507 0.0
C_ C_ 0.746686 0.291779 0.139932 0.0
C_ C_ 0.721104 0.307109 0.164044 0.0
C_ C_ 0.00327863 0.318029 0.161023 0.0
C_ C_ 0.975938 0.31379 0.133871 0.0
C_ C_ 0.746357 0.329403 0.185137 0.0
C_ C_ 0.999445 0.346676 0.18031 0.0
C_ C_ 0.763715 0.407225 0.260949 0.0
C_ C_ 0.749875 0.37753 0.242992 0.0
C_ C_ 0.725461 0.382198 0.215202 0.0
C_ C_ 0.713699 0.416644 0.206373 0.0
C_ C_ 0.727456 0.445648 0.225242 0.0
N_ N_ 0.852935 0.219087 0.066102 0.0
N_ N_ 0.783611 0.142872 0.126543 0.0
N_ N_ 0.711527 0.101806 0.0536496 0.0
N_ N_ 0.754235 0.190701 0.9986 0.0
N_ N_ 0.813732 0.030913 0.316102 0.0
N_ N_ 0.883056 0.107128 0.376543 0.0
N_ N_ 0.95514 0.148194 0.30365 0.0
N_ N_ 0.912431 0.0592986 0.2486 0.0
N_ N_ 0.813732 0.280913 0.433898 0.0
N_ N_ 0.883056 0.357128 0.373457 0.0
N_ N_ 0.95514 0.398194 0.44635 0.0
N_ N_ 0.912431 0.309299 0.5014 0.0
N_ N_ 0.852935 0.469087 0.183898 0.0
N_ N_ 0.783611 0.392872 0.123457 0.0
N_ N_ 0.711527 0.351806 0.19635 0.0
N_ N_ 0.754235 0.440701 0.2514 0.0
O_ O_ 0.79885 0.0149975 0.217173 0.0
O_ O_ 0.743984 0.0344756 0.250578 0.0
O_ O_ 0.695457 0.155721 0.134274 0.0
O_ O_ 0.865986 0.120132 0.13586 0.0
O_ O_ 0.925653 0.0510577 0.172831 0.0
O_ O_ 0.978891 0.0105991 0.184197 0.0
O_ O_ 0.95354 0.105994 0.059287 0.0
O_ O_ 0.78749 0.0699826 0.0492879 0.0
O_ O_ 0.867816 0.235003 0.467173 0.0
O_ O_ 0.922682 0.215524 0.000578323 0.0
O_ O_ 0.97121 0.094279 0.384274 0.0
O_ O_ 0.80068 0.129868 0.38586 0.0
O_ O_ 0.741013 0.198942 0.422831 0.0
O_ O_ 0.687776 0.239401 0.434197 0.0
O_ O_ 0.713127 0.144006 0.309287 0.0
O_ O_ 0.879177 0.180017 0.299288 0.0
O_ O_ 0.867816 0.485003 0.282827 0.0
O_ O_ 0.922682 0.465524 0.249422 0.0
O_ O_ 0.97121 0.344279 0.365726 0.0
O_ O_ 0.80068 0.379868 0.36414 0.0
O_ O_ 0.741013 0.448942 0.327169 0.0
O_ O_ 0.687776 0.489401 0.315803 0.0
O_ O_ 0.713127 0.394006 0.440713 0.0
O_ O_ 0.879177 0.430017 0.450712 0.0
O_ O_ 0.79885 0.264997 0.032827 0.0
O_ O_ 0.743984 0.284476 0.499422 0.0
O_ O_ 0.695457 0.405721 0.115726 0.0
O_ O_ 0.865986 0.370132 0.11414 0.0
O_ O_ 0.925653 0.301058 0.0771694 0.0
O_ O_ 0.978891 0.260599 0.0658027 0.0
O_ O_ 0.95354 0.355994 0.190713 0.0
O_ O_ 0.78749 0.319983 0.200712 0.0
Cd Cd 0.896835 0.0117191 0.71467 0.0
Cd Cd 0.769832 0.238281 0.96467 0.0
Cd Cd 0.769832 0.488281 0.78533 0.0
Cd Cd 0.896835 0.261719 0.53533 0.0
H_ H_ 0.684627 0.0797452 0.725897 0.0
H_ H_ 0.00143726 0.129013 0.690298 0.0
H_ H_ 0.832225 0.0651784 0.679747 0.0
H_ H_ 0.833728 0.258413 0.597662 0.0
H_ H_ 0.78881 0.214791 0.632561 0.0
H_ H_ 0.832514 0.129969 0.574356 0.0
H_ H_ 0.872183 0.175225 0.5391 0.0
H_ H_ 0.736312 0.0202596 0.654784 0.0
H_ H_ 0.788447 0.0367846 0.608694 0.0
H_ H_ 0.937697 0.0748764 0.618937 0.0
H_ H_ 0.778699 0.153364 0.96672 0.0
H_ H_ 0.756465 0.100974 0.498905 0.0
H_ H_ 0.693888 0.170902 0.564808 0.0
H_ H_ 0.714938 0.221767 0.530389 0.0
H_ H_ 0.98204 0.170255 0.975897 0.0
H_ H_ 0.665229 0.120987 0.940298 0.0
H_ H_ 0.834442 0.184822 0.929747 0.0
H_ H_ 0.832939 0.491587 0.847662 0.0
H_ H_ 0.877857 0.035209 0.882561 0.0
H_ H_ 0.834153 0.120031 0.824356 0.0
H_ H_ 0.794483 0.0747749 0.7891 0.0
H_ H_ 0.930355 0.22974 0.904784 0.0
H_ H_ 0.87822 0.213215 0.858694 0.0
H_ H_ 0.728969 0.175124 0.868937 0.0
H_ H_ 0.887968 0.0966362 0.71672 0.0
H_ H_ 0.910202 0.149026 0.748905 0.0
H_ H_ 0.972779 0.0790981 0.814808 0.0
H_ H_ 0.951728 0.0282328 0.780389 0.0
H_ H_ 0.98204 0.420255 0.774103 0.0
H_ H_ 0.665229 0.370987 0.809702 0.0
H_ H_ 0.834442 0.434822 0.820253 0.0
H_ H_ 0.832939 0.241587 0.902338 0.0
H_ H_ 0.877857 0.285209 0.867439 0.0
H_ H_ 0.834153 0.370031 0.925644 0.0
H_ H_ 0.794483 0.324775 0.9609 0.0
H_ H_ 0.930355 0.47974 0.845216 0.0
H_ H_ 0.87822 0.463215 0.891306 0.0
H_ H_ 0.728969 0.425124 0.881063 0.0
H_ H_ 0.887968 0.346636 0.53328 0.0
H_ H_ 0.910202 0.399026 0.00109454 0.0
H_ H_ 0.972779 0.329098 0.935192 0.0
H_ H_ 0.951728 0.278233 0.969611 0.0
H_ H_ 0.684627 0.329745 0.524103 0.0
H_ H_ 0.00143727 0.379013 0.559702 0.0
H_ H_ 0.832225 0.315178 0.570253 0.0
H_ H_ 0.833728 0.00841344 0.652338 0.0
H_ H_ 0.78881 0.464791 0.617439 0.0
H_ H_ 0.832514 0.379969 0.675644 0.0
H_ H_ 0.872183 0.425225 0.7109 0.0
H_ H_ 0.736312 0.27026 0.595216 0.0
H_ H_ 0.788447 0.286785 0.641306 0.0
H_ H_ 0.937697 0.324876 0.631063 0.0
H_ H_ 0.778699 0.403364 0.78328 0.0
H_ H_ 0.756465 0.350974 0.751095 0.0
H_ H_ 0.693888 0.420902 0.685192 0.0
H_ H_ 0.714938 0.471767 0.719611 0.0
C_ C_ 0.772014 0.0399984 0.727052 0.0
C_ C_ 0.762653 0.0707715 0.707483 0.0
C_ C_ 0.715187 0.0888219 0.710019 0.0
C_ C_ 0.706251 0.117352 0.690542 0.0
C_ C_ 0.747771 0.13051 0.671853 0.0
C_ C_ 0.794133 0.113273 0.669669 0.0
C_ C_ 0.800068 0.0815736 0.685219 0.0
C_ C_ 0.814769 0.120719 0.641473 0.0
C_ C_ 0.742217 0.148598 0.645016 0.0
C_ C_ 0.830943 0.230298 0.592092 0.0
C_ C_ 0.80574 0.205623 0.611814 0.0
C_ C_ 0.804812 0.169032 0.605206 0.0
C_ C_ 0.829843 0.158066 0.579027 0.0
C_ C_ 0.853144 0.183656 0.559394 0.0
C_ C_ 0.968039 0.0362297 0.667278 0.0
C_ C_ 0.998734 0.0447258 0.639664 0.0
C_ C_ 0.717739 0.0337728 0.636493 0.0
C_ C_ 0.746686 0.0417792 0.610068 0.0
C_ C_ 0.721104 0.0571085 0.585956 0.0
C_ C_ 0.00327862 0.0680289 0.588977 0.0
C_ C_ 0.975938 0.0637899 0.616129 0.0
C_ C_ 0.746357 0.0794027 0.564863 0.0
C_ C_ 0.999445 0.0966762 0.56969 0.0
C_ C_ 0.763715 0.157225 0.989051 0.0
C_ C_ 0.749875 0.12753 0.507008 0.0
C_ C_ 0.725461 0.132198 0.534798 0.0
C_ C_ 0.713699 0.166644 0.543627 0.0
C_ C_ 0.727456 0.195648 0.524758 0.0
C_ C_ 0.894653 0.210002 0.977052 0.0
C_ C_ 0.904014 0.179229 0.957483 0.0
C_ C_ 0.95148 0.161178 0.960019 0.0
C_ C_ 0.960415 0.132648 0.940542 0.0
C_ C_ 0.918896 0.11949 0.921853 0.0
C_ C_ 0.872534 0.136727 0.919669 0.0
C_ C_ 0.866599 0.168426 0.935219 0.0
C_ C_ 0.851898 0.129281 0.891473 0.0
C_ C_ 0.924449 0.101402 0.895016 0.0
C_ C_ 0.835724 0.0197024 0.842092 0.0
C_ C_ 0.860926 0.044377 0.861814 0.0
C_ C_ 0.861855 0.0809681 0.855206 0.0
C_ C_ 0.836823 0.0919345 0.829027 0.0
C_ C_ 0.813523 0.0663441 0.809394 0.0
C_ C_ 0.698628 0.21377 0.917278 0.0
C_ C_ 0.667933 0.205274 0.889664 0.0
C_ C_ 0.948927 0.216227 0.886493 0.0
C_ C_ 0.91998 0.208221 0.860068 0.0
C_ C_ 0.945562 0.192891 0.835956 0.0
C_ C_ 0.663388 0.181971 0.838977 0.0
C_ C_ 0.690729 0.18621 0.866129 0.0
C_ C_ 0.92031 0.170597 0.814863 0.0
C_ C_ 0.667221 0.153324 0.81969 0.0
C_ C_ 0.902952 0.0927748 0.739051 0.0
C_ C_ 0.916792 0.12247 0.757008 0.0
C_ C_ 0.941206 0.117802 0.784798 0.0
C_ C_ 0.952968 0.0833558 0.793627 0.0
C_ C_ 0.93921 0.0543523 0.774758 0.0
C_ C_ 0.894653 0.460002 0.772948 0.0
C_ C_ 0.904014 0.429229 0.792517 0.0
C_ C_ 0.95148 0.411178 0.789981 0.0
C_ C_ 0.960415 0.382648 0.809458 0.0
C_ C_ 0.918896 0.36949 0.828147 0.0
C_ C_ 0.872534 0.386727 0.830331 0.0
C_ C_ 0.866599 0.418426 0.814781 0.0
C_ C_ 0.851898 0.379281 0.858527 0.0
C_ C_ 0.924449 0.351402 0.854984 0.0
C_ C_ 0.835724 0.269702 0.907908 0.0
C_ C_ 0.860926 0.294377 0.888186 0.0
C_ C_ 0.861855 0.330968 0.894794 0.0
C_ C_ 0.836823 0.341934 0.920973 0.0
C_ C_ 0.813523 0.316344 0.940606 0.0
C_ C_ 0.698628 0.46377 0.832722 0.0
C_ C_ 0.667933 0.455274 0.860336 0.0
C_ C_ 0.948927 0.466227 0.863507 0.0
C_ C_ 0.91998 0.458221 0.889932 0.0
C_ C_ 0.945562 0.442891 0.914044 0.0
C_ C_ 0.663388 0.431971 0.911023 0.0
C_ C_ 0.690729 0.43621 0.883871 0.0
C_ C_ 0.92031 0.420597 0.935137 0.0
C_ C_ 0.667221 0.403324 0.93031 0.0
C_ C_ 0.902952 0.342775 0.510949 0.0
C_ C_ 0.916792 0.37247 0.992992 0.0
C_ C_ 0.941206 0.367802 0.965202 0.0
C_ C_ 0.952968 0.333356 0.956373 0.0
C_ C_ 0.93921 0.304352 0.975242 0.0
C_ C_ 0.772014 0.289998 0.522948 0.0
C_ C_ 0.762653 0.320771 0.542517 0.0
C_ C_ 0.715187 0.338822 0.539981 0.0
C_ C_ 0.706251 0.367352 0.559458 0.0
C_ C_ 0.747771 0.38051 0.578147 0.0
C_ C_ 0.794133 0.363273 0.580331 0.0
C_ C_ 0.800068 0.331574 0.564781 0.0
C_ C_ 0.814769 0.370719 0.608527 0.0
C_ C_ 0.742217 0.398598 0.604984 0.0
C_ C_ 0.830943 0.480298 0.657908 0.0
C_ C_ 0.80574 0.455623 0.638186 0.0
C_ C_ 0.804812 0.419032 0.644794 0.0
C_ C_ 0.829843 0.408066 0.670973 0.0
C_ C_ 0.853144 0.433656 0.690606 0.0
C_ C_ 0.968039 0.28623 0.582722 0.0
C_ C_ 0.998734 0.294726 0.610336 0.0
C_ C_ 0.717739 0.283773 0.613507 0.0
C_ C_ 0.746686 0.291779 0.639932 0.0
C_ C_ 0.721104 0.307109 0.664044 0.0
C_ C_ 0.00327863 0.318029 0.661023 0.0
C_ C_ 0.975938 0.31379 0.633871 0.0
C_ C_ 0.746357 0.329403 0.685137 0.0
C_ C_ 0.999445 0.346676 0.68031 0.0
C_ C_ 0.763715 0.407225 0.760949 0.0
C_ C_ 0.749875 0.37753 0.742992 0.0
C_ C_ 0.725461 0.382198 0.715202 0.0
C_ C_ 0.713699 0.416644 0.706373 0.0
C_ C_ 0.727456 0.445648 0.725242 0.0
N_ N_ 0.852935 0.219087 0.566102 0.0
N_ N_ 0.783611 0.142872 0.626543 0.0
N_ N_ 0.711527 0.101806 0.55365 0.0
N_ N_ 0.754235 0.190701 0.4986 0.0
N_ N_ 0.813732 0.030913 0.816102 0.0
N_ N_ 0.883056 0.107128 0.876543 0.0
N_ N_ 0.95514 0.148194 0.80365 0.0
N_ N_ 0.912431 0.0592986 0.7486 0.0
N_ N_ 0.813732 0.280913 0.933898 0.0
N_ N_ 0.883056 0.357128 0.873457 0.0
N_ N_ 0.95514 0.398194 0.94635 0.0
N_ N_ 0.912431 0.309299 0.00139979 0.0
N_ N_ 0.852935 0.469087 0.683898 0.0
N_ N_ 0.783611 0.392872 0.623457 0.0
N_ N_ 0.711527 0.351806 0.69635 0.0
N_ N_ 0.754235 0.440701 0.7514 0.0
O_ O_ 0.79885 0.0149975 0.717173 0.0
O_ O_ 0.743984 0.0344756 0.750578 0.0
O_ O_ 0.695457 0.155721 0.634274 0.0
O_ O_ 0.865986 0.120132 0.63586 0.0
O_ O_ 0.925653 0.0510577 0.672831 0.0
O_ O_ 0.978891 0.0105991 0.684197 0.0
O_ O_ 0.95354 0.105994 0.559287 0.0
O_ O_ 0.78749 0.0699826 0.549288 0.0
O_ O_ 0.867816 0.235003 0.967173 0.0
O_ O_ 0.922682 0.215524 0.500578 0.0
O_ O_ 0.97121 0.094279 0.884274 0.0
O_ O_ 0.80068 0.129868 0.88586 0.0
O_ O_ 0.741013 0.198942 0.922831 0.0
O_ O_ 0.687776 0.239401 0.934197 0.0
O_ O_ 0.713127 0.144006 0.809287 0.0
O_ O_ 0.879177 0.180017 0.799288 0.0
O_ O_ 0.867816 0.485003 0.782827 0.0
O_ O_ 0.922682 0.465524 0.749422 0.0
O_ O_ 0.97121 0.344279 0.865726 0.0
O_ O_ 0.80068 0.379868 0.86414 0.0
O_ O_ 0.741013 0.448942 0.827169 0.0
O_ O_ 0.687776 0.489401 0.815803 0.0
O_ O_ 0.713127 0.394006 0.940713 0.0
O_ O_ 0.879177 0.430017 0.950712 0.0
O_ O_ 0.79885 0.264997 0.532827 0.0
O_ O_ 0.743984 0.284476 0.999422 0.0
O_ O_ 0.695457 0.405721 0.615726 0.0
O_ O_ 0.865986 0.370132 0.61414 0.0
O_ O_ 0.925653 0.301058 0.577169 0.0
O_ O_ 0.978891 0.260599 0.565803 0.0
O_ O_ 0.95354 0.355994 0.690713 0.0
O_ O_ 0.78749 0.319983 0.700712 0.0
Cd Cd 0.896835 0.511719 0.21467 0.0
Cd Cd 0.769832 0.738281 0.46467 0.0
Cd Cd 0.769832 0.988281 0.28533 0.0
Cd Cd 0.896835 0.761719 0.0353296 0.0
H_ H_ 0.684627 0.579745 0.225897 0.0
H_ H_ 0.00143727 0.629013 0.190298 0.0
H_ H_ 0.832225 0.565178 0.179747 0.0
H_ H_ 0.833728 0.758413 0.0976618 0.0
H_ H_ 0.78881 0.714791 0.132561 0.0
H_ H_ 0.832514 0.629969 0.0743557 0.0
H_ H_ 0.872183 0.675225 0.0391002 0.0
H_ H_ 0.736312 0.52026 0.154784 0.0
H_ H_ 0.788447 0.536785 0.108694 0.0
H_ H_ 0.937697 0.574876 0.118937 0.0
H_ H_ 0.778699 0.653364 0.46672 0.0
H_ H_ 0.756465 0.600974 0.998905 0.0
H_ H_ 0.693888 0.670902 0.0648075 0.0
H_ H_ 0.714938 0.721767 0.0303887 0.0
H_ H_ 0.98204 0.670255 0.475897 0.0
H_ H_ 0.665229 0.620987 0.440298 0.0
H_ H_ 0.834442 0.684822 0.429747 0.0
H_ H_ 0.832939 0.991587 0.347662 0.0
H_ H_ 0.877857 0.535209 0.382561 0.0
H_ H_ 0.834153 0.620031 0.324356 0.0
H_ H_ 0.794483 0.574775 0.2891 0.0
H_ H_ 0.930355 0.72974 0.404784 0.0
H_ H_ 0.87822 0.713215 0.358694 0.0
H_ H_ 0.728969 0.675124 0.368937 0.0
H_ H_ 0.887968 0.596636 0.21672 0.0
H_ H_ 0.910202 0.649026 0.248905 0.0
H_ H_ 0.972779 0.579098 0.314808 0.0
H_ H_ 0.951728 0.528233 0.280389 0.0
H_ H_ 0.98204 0.920255 0.274103 0.0
H_ H_ 0.665229 0.870987 0.309702 0.0
H_ H_ 0.834442 0.934822 0.320253 0.0
H_ H_ 0.832939 0.741587 0.402338 0.0
H_ H_ 0.877857 0.785209 0.367439 0.0
H_ H_ 0.834153 0.870031 0.425644 0.0
H_ H_ 0.794483 0.824775 0.4609 0.0
H_ H_ 0.930355 0.97974 0.345216 0.0
H_ H_ 0.87822 0.963215 0.391306 0.0
H_ H_ 0.728969 0.925124 0.381063 0.0
H_ H_ 0.887968 0.846636 0.0332805 0.0
H_ H_ 0.910202 0.899026 0.501095 0.0
H_ H_ 0.972779 0.829098 0.435192 0.0
H_ H_ 0.951728 0.778233 0.469611 0.0
H_ H_ 0.684627 0.829745 0.0241033 0.0
H_ H_ 0.00143726 0.879013 0.0597022 0.0
H_ H_ 0.832225 0.815178 0.0702528 0.0
H_ H_ 0.833728 0.508413 0.152338 0.0
H_ H_ 0.78881 0.964791 0.117439 0.0
H_ H_ 0.832514 0.879969 0.175644 0.0
H_ H_ 0.872183 0.925225 0.2109 0.0
H_ H_ 0.736312 0.77026 0.0952161 0.0
H_ H_ 0.788447 0.786785 0.141306 0.0
H_ H_ 0.937697 0.824876 0.131063 0.0
H_ H_ 0.778699 0.903364 0.28328 0.0
H_ H_ 0.756465 0.850974 0.251095 0.0
H_ H_ 0.693888 0.920902 0.185192 0.0
H_ H_ 0.714938 0.971767 0.219611 0.0
C_ C_ 0.772014 0.539998 0.227052 0.0
C_ C_ 0.762653 0.570771 0.207483 0.0
C_ C_ 0.715187 0.588822 0.210019 0.0
C_ C_ 0.706251 0.617352 0.190542 0.0
C_ C_ 0.747771 0.63051 0.171853 0.0
C_ C_ 0.794133 0.613273 0.169669 0.0
C_ C_ 0.800068 0.581574 0.185219 0.0
C_ C_ 0.814769 0.620719 0.141473 0.0
C_ C_ 0.742217 0.648598 0.145016 0.0
C_ C_ 0.830943 0.730298 0.0920919 0.0
C_ C_ 0.80574 0.705623 0.111814 0.0
C_ C_ 0.804812 0.669032 0.105206 0.0
C_ C_ 0.829843 0.658066 0.0790275 0.0
C_ C_ 0.853144 0.683656 0.0593936 0.0
C_ C_ 0.968039 0.53623 0.167278 0.0
C_ C_ 0.998734 0.544726 0.139664 0.0
C_ C_ 0.717739 0.533773 0.136493 0.0
C_ C_ 0.746686 0.541779 0.110068 0.0
C_ C_ 0.721104 0.557109 0.0859562 0.0
C_ C_ 0.00327863 0.568029 0.0889766 0.0
C_ C_ 0.975938 0.56379 0.116129 0.0
C_ C_ 0.746357 0.579403 0.0648629 0.0
C_ C_ 0.999445 0.596676 0.0696897 0.0
C_ C_ 0.763715 0.657225 0.489051 0.0
C_ C_ 0.749875 0.62753 0.00700845 0.0
C_ C_ 0.725461 0.632198 0.0347975 0.0
C_ C_ 0.713699 0.666644 0.0436273 0.0
C_ C_ 0.727456 0.695648 0.0247575 0.0
C_ C_ 0.894653 0.710002 0.477052 0.0
C_ C_ 0.904014 0.679229 0.457483 0.0
C_ C_ 0.95148 0.661178 0.460019 0.0
C_ C_ 0.960415 0.632648 0.440542 0.0
C_ C_ 0.918896 0.61949 0.421853 0.0
C_ C_ 0.872534 0.636727 0.419669 0.0
C_ C_ 0.866599 0.668426 0.435219 0.0
C_ C_ 0.851898 0.629281 0.391473 0.0
C_ C_ 0.924449 0.601402 0.395016 0.0
C_ C_ 0.835724 0.519702 0.342092 0.0
C_ C_ 0.860926 0.544377 0.361814 0.0
C_ C_ 0.861855 0.580968 0.355206 0.0
C_ C_ 0.836823 0.591934 0.329027 0.0
C_ C_ 0.813523 0.566344 0.309394 0.0
C_ C_ 0.698628 0.71377 0.417278 0.0
C_ C_ 0.667933 0.705274 0.389664 0.0
C_ C_ 0.948927 0.716227 0.386493 0.0
C_ C_ 0.91998 0.708221 0.360068 0.0
C_ C_ 0.945562 0.692891 0.335956 0.0
C_ C_ 0.663388 0.681971 0.338977 0.0
C_ C_ 0.690729 0.68621 0.366129 0.0
C_ C_ 0.92031 0.670597 0.314863 0.0
C_ C_ 0.667221 0.653324 0.31969 0.0
C_ C_ 0.902952 0.592775 0.239051 0.0
C_ C_ 0.916792 0.62247 0.257008 0.0
C_ C_ 0.941206 0.617802 0.284798 0.0
C_ C_ 0.952968 0.583356 0.293627 0.0
C_ C_ 0.93921 0.554352 0.274758 0.0
C_ C_ 0.894653 0.960002 0.272948 0.0
C_ C_ 0.904014 0.929229 0.292517 0.0
C_ C_ 0.95148 0.911178 0.289981 0.0
C_ C_ 0.960415 0.882648 0.309458 0.0
C_ C_ 0.918896 0.86949 0.328147 0.0
C_ C_ 0.872534 0.886727 0.330331 0.0
C_ C_ 0.866599 0.918426 0.314781 0.0
C_ C_ 0.851898 0.879281 0.358527 0.0
C_ C_ 0.924449 0.851402 0.354984 0.0
C_ C_ 0.835724 0.769702 0.407908 0.0
C_ C_ 0.860926 0.794377 0.388186 0.0
C_ C_ 0.861855 0.830968 0.394794 0.0
C_ C_ 0.836823 0.841934 0.420973 0.0
C_ C_ 0.813523 0.816344 0.440606 0.0
C_ C_ 0.698628 0.96377 0.332722 0.0
C_ C_ 0.667933 0.955274 0.360336 0.0
C_ C_ 0.948927 0.966227 0.363507 0.0
C_ C_ 0.91998 0.958221 0.389932 0.0
C_ C_ 0.945562 0.942891 0.414044 0.0
C_ C_ 0.663388 0.931971 0.411023 0.0
C_ C_ 0.690729 0.93621 0.383871 0.0
C_ C_ 0.92031 0.920597 0.435137 0.0
C_ C_ 0.667221 0.903324 0.43031 0.0
C_ C_ 0.902952 0.842775 0.010949 0.0
C_ C_ 0.916792 0.87247 0.492992 0.0
C_ C_ 0.941206 0.867802 0.465202 0.0
C_ C_ 0.952968 0.833356 0.456373 0.0
C_ C_ 0.93921 0.804352 0.475242 0.0
C_ C_ 0.772014 0.789998 0.0229477 0.0
C_ C_ 0.762653 0.820771 0.0425173 0.0
C_ C_ 0.715187 0.838822 0.0399812 0.0
C_ C_ 0.706251 0.867352 0.0594584 0.0
C_ C_ 0.747771 0.88051 0.0781469 0.0
C_ C_ 0.794133 0.863273 0.0803307 0.0
C_ C_ 0.800068 0.831574 0.0647812 0.0
C_ C_ 0.814769 0.870719 0.108527 0.0
C_ C_ 0.742217 0.898598 0.104984 0.0
C_ C_ 0.830943 0.980298 0.157908 0.0
C_ C_ 0.80574 0.955623 0.138186 0.0
C_ C_ 0.804812 0.919032 0.144794 0.0
C_ C_ 0.829843 0.908066 0.170973 0.0
C_ C_ 0.853144 0.933656 0.190606 0.0
C_ C_ 0.968039 0.78623 0.0827219 0.0
C_ C_ 0.998734 0.794726 0.110336 0.0
C_ C_ 0.717739 0.783773 0.113507 0.0
C_ C_ 0.746686 0.791779 0.139932 0.0
C_ C_ 0.721104 0.807109 0.164044 0.0
C_ C_ 0.00327862 0.818029 0.161023 0.0
C_ C_ 0.975938 0.81379 0.133871 0.0
C_ C_ 0.746357 0.829403 0.185137 0.0
C_ C_ 0.999445 0.846676 0.18031 0.0
C_ C_ 0.763715 0.907225 0.260949 0.0
C_ C_ 0.749875 0.87753 0.242992 0.0
C_ C_ 0.725461 0.882198 0.215202 0.0
C_ C_ 0.713699 0.916644 0.206373 0.0
C_ C_ 0.727456 0.945648 0.225242 0.0
N_ N_ 0.852935 0.719087 0.066102 0.0
N_ N_ 0.783611 0.642872 0.126543 0.0
N_ N_ 0.711527 0.601806 0.0536496 0.0
N_ N_ 0.754235 0.690701 0.9986 0.0
N_ N_ 0.813732 0.530913 0.316102 0.0
N_ N_ 0.883056 0.607128 0.376543 0.0
N_ N_ 0.95514 0.648194 0.30365 0.0
N_ N_ 0.912431 0.559299 0.2486 0.0
N_ N_ 0.813732 0.780913 0.433898 0.0
N_ N_ 0.883056 0.857128 0.373457 0.0
N_ N_ 0.95514 0.898194 0.44635 0.0
N_ N_ 0.912431 0.809299 0.5014 0.0
N_ N_ 0.852935 0.969087 0.183898 0.0
N_ N_ 0.783611 0.892872 0.123457 0.0
N_ N_ 0.711527 0.851806 0.19635 0.0
N_ N_ 0.754235 0.940701 0.2514 0.0
O_ O_ 0.79885 0.514997 0.217173 0.0
O_ O_ 0.743984 0.534476 0.250578 0.0
O_ O_ 0.695457 0.655721 0.134274 0.0
O_ O_ 0.865986 0.620132 0.13586 0.0
O_ O_ 0.925653 0.551058 0.172831 0.0
O_ O_ 0.978891 0.510599 0.184197 0.0
O_ O_ 0.95354 0.605994 0.059287 0.0
O_ O_ 0.78749 0.569983 0.0492879 0.0
O_ O_ 0.867816 0.735003 0.467173 0.0
O_ O_ 0.922682 0.715524 0.000578323 0.0
O_ O_ 0.97121 0.594279 0.384274 0.0
O_ O_ 0.80068 0.629868 0.38586 0.0
O_ O_ 0.741013 0.698942 0.422831 0.0
O_ O_ 0.687776 0.739401 0.434197 0.0
O_ O_ 0.713127 0.644007 0.309287 0.0
O_ O_ 0.879177 0.680017 0.299288 0.0
O_ O_ 0.867816 0.985003 0.282827 0.0
O_ O_ 0.922682 0.965524 0.249422 0.0
O_ O_ 0.97121 0.844279 0.365726 0.0
O_ O_ 0.80068 0.879868 0.36414 0.0
O_ O_ 0.741013 0.948942 0.327169 0.0
O_ O_ 0.687776 0.989401 0.315803 0.0
O_ O_ 0.713127 0.894007 0.440713 0.0
O_ O_ 0.879177 0.930017 0.450712 0.0
O_ O_ 0.79885 0.764997 0.032827 0.0
O_ O_ 0.743984 0.784476 0.499422 0.0
O_ O_ 0.695457 0.905721 0.115726 0.0
O_ O_ 0.865986 0.870132 0.11414 0.0
O_ O_ 0.925653 0.801058 0.0771694 0.0
O_ O_ 0.978891 0.760599 0.0658027 0.0
O_ O_ 0.95354 0.855994 0.190713 0.0
O_ O_ 0.78749 0.819983 0.200712 0.0
Cd Cd 0.896835 0.511719 0.71467 0.0
Cd Cd 0.769832 0.738281 0.96467 0.0
Cd Cd 0.769832 0.988281 0.78533 0.0
Cd Cd 0.896835 0.761719 0.53533 0.0
H_ H_ 0.684627 0.579745 0.725897 0.0
H_ H_ 0.00143727 0.629013 0.690298 0.0
H_ H_ 0.832225 0.565178 0.679747 0.0
H_ H_ 0.833728 0.758413 0.597662 0.0
H_ H_ 0.78881 0.714791 0.632561 0.0
H_ H_ 0.832514 0.629969 0.574356 0.0
H_ H_ 0.872183 0.675225 0.5391 0.0
H_ H_ 0.736312 0.52026 0.654784 0.0
H_ H_ 0.788447 0.536785 0.608694 0.0
H_ H_ 0.937697 0.574876 0.618937 0.0
H_ H_ 0.778699 0.653364 0.96672 0.0
H_ H_ 0.756465 0.600974 0.498905 0.0
H_ H_ 0.693888 0.670902 0.564808 0.0
H_ H_ 0.714938 0.721767 0.530389 0.0
H_ H_ 0.98204 0.670255 0.975897 0.0
H_ H_ 0.665229 0.620987 0.940298 0.0
H_ H_ 0.834442 0.684822 0.929747 0.0
H_ H_ 0.832939 0.991587 0.847662 0.0
H_ H_ 0.877857 0.535209 0.882561 0.0
H_ H_ 0.834153 0.620031 0.824356 0.0
H_ H_ 0.794483 0.574775 0.7891 0.0
H_ H_ 0.930355 0.72974 0.904784 0.0
H_ H_ 0.87822 0.713215 0.858694 0.0
H_ H_ 0.728969 0.675124 0.868937 0.0
H_ H_ 0.887968 0.596636 0.71672 0.0
H_ H_ 0.910202 0.649026 0.748905 0.0
H_ H_ 0.972779 0.579098 0.814808 0.0
H_ H_ 0.951728 0.528233 0.780389 0.0
H_ H_ 0.98204 0.920255 0.774103 0.0
H_ H_ 0.665229 0.870987 0.809702 0.0
H_ H_ 0.834442 0.934822 0.820253 0.0
H_ H_ 0.832939 0.741587 0.902338 0.0
H_ H_ 0.877857 0.785209 0.867439 0.0
H_ H_ 0.834153 0.870031 0.925644 0.0
H_ H_ 0.794483 0.824775 0.9609 0.0
H_ H_ 0.930355 0.97974 0.845216 0.0
H_ H_ 0.87822 0.963215 0.891306 0.0
H_ H_ 0.728969 0.925124 0.881063 0.0
H_ H_ 0.887968 0.846636 0.53328 0.0
H_ H_ 0.910202 0.899026 0.00109454 0.0
H_ H_ 0.972779 0.829098 0.935192 0.0
H_ H_ 0.951728 0.778233 0.969611 0.0
H_ H_ 0.684627 0.829745 0.524103 0.0
H_ H_ 0.00143726 0.879013 0.559702 0.0
H_ H_ 0.832225 0.815178 0.570253 0.0
H_ H_ 0.833728 0.508413 0.652338 0.0
H_ H_ 0.78881 0.964791 0.617439 0.0
H_ H_ 0.832514 0.879969 0.675644 0.0
H_ H_ 0.872183 0.925225 0.7109 0.0
H_ H_ 0.736312 0.77026 0.595216 0.0
H_ H_ 0.788447 0.786785 0.641306 0.0
H_ H_ 0.937697 0.824876 0.631063 0.0
H_ H_ 0.778699 0.903364 0.78328 0.0
H_ H_ 0.756465 0.850974 0.751095 0.0
H_ H_ 0.693888 0.920902 0.685192 0.0
H_ H_ 0.714938 0.971767 0.719611 0.0
C_ C_ 0.772014 0.539998 0.727052 0.0
C_ C_ 0.762653 0.570771 0.707483 0.0
C_ C_ 0.715187 0.588822 0.710019 0.0
C_ C_ 0.706251 0.617352 0.690542 0.0
C_ C_ 0.747771 0.63051 0.671853 0.0
C_ C_ 0.794133 0.613273 0.669669 0.0
C_ C_ 0.800068 0.581574 0.685219 0.0
C_ C_ 0.814769 0.620719 0.641473 0.0
C_ C_ 0.742217 0.648598 0.645016 0.0
C_ C_ 0.830943 0.730298 0.592092 0.0
C_ C_ 0.80574 0.705623 0.611814 0.0
C_ C_ 0.804812 0.669032 0.605206 0.0
C_ C_ 0.829843 0.658066 0.579027 0.0
C_ C_ 0.853144 0.683656 0.559394 0.0
C_ C_ 0.968039 0.53623 0.667278 0.0
C_ C_ 0.998734 0.544726 0.639664 0.0
C_ C_ 0.717739 0.533773 0.636493 0.0
C_ C_ 0.746686 0.541779 0.610068 0.0
C_ C_ 0.721104 0.557109 0.585956 0.0
C_ C_ 0.00327863 0.568029 0.588977 0.0
C_ C_ 0.975938 0.56379 0.616129 0.0
C_ C_ 0.746357 0.579403 0.564863 0.0
C_ C_ 0.999445 0.596676 0.56969 0.0
C_ C_ 0.763715 0.657225 0.989051 0.0
C_ C_ 0.749875 0.62753 0.507008 0.0
C_ C_ 0.725461 0.632198 0.534798 0.0
C_ C_ 0.713699 0.666644 0.543627 0.0
C_ C_ 0.727456 0.695648 0.524758 0.0
C_ C_ 0.894653 0.710002 0.977052 0.0
C_ C_ 0.904014 0.679229 0.957483 0.0
C_ C_ 0.95148 0.661178 0.960019 0.0
C_ C_ 0.960415 0.632648 0.940542 0.0
C_ C_ 0.918896 0.61949 0.921853 0.0
C_ C_ 0.872534 0.636727 0.919669 0.0
C_ C_ 0.866599 0.668426 0.935219 0.0
C_ C_ 0.851898 0.629281 0.891473 0.0
C_ C_ 0.924449 0.601402 0.895016 0.0
C_ C_ 0.835724 0.519702 0.842092 0.0
C_ C_ 0.860926 0.544377 0.861814 0.0
C_ C_ 0.861855 0.580968 0.855206 0.0
C_ C_ 0.836823 0.591934 0.829027 0.0
C_ C_ 0.813523 0.566344 0.809394 0.0
C_ C_ 0.698628 0.71377 0.917278 0.0
C_ C_ 0.667933 0.705274 0.889664 0.0
C_ C_ 0.948927 0.716227 0.886493 0.0
C_ C_ 0.91998 0.708221 0.860068 0.0
C_ C_ 0.945562 0.692891 0.835956 0.0
C_ C_ 0.663388 0.681971 0.838977 0.0
C_ C_ 0.690729 0.68621 0.866129 0.0
C_ C_ 0.92031 0.670597 0.814863 0.0
C_ C_ 0.667221 0.653324 0.81969 0.0
C_ C_ 0.902952 0.592775 0.739051 0.0
C_ C_ 0.916792 0.62247 0.757008 0.0
C_ C_ 0.941206 0.617802 0.784798 0.0
C_ C_ 0.952968 0.583356 0.793627 0.0
C_ C_ 0.93921 0.554352 0.774758 0.0
C_ C_ 0.894653 0.960002 0.772948 0.0
C_ C_ 0.904014 0.929229 0.792517 0.0
C_ C_ 0.95148 0.911178 0.789981 0.0
C_ C_ 0.960415 0.882648 0.809458 0.0
C_ C_ 0.918896 0.86949 0.828147 0.0
C_ C_ 0.872534 0.886727 0.830331 0.0
C_ C_ 0.866599 0.918426 0.814781 0.0
C_ C_ 0.851898 0.879281 0.858527 0.0
C_ C_ 0.924449 0.851402 0.854984 0.0
C_ C_ 0.835724 0.769702 0.907908 0.0
C_ C_ 0.860926 0.794377 0.888186 0.0
C_ C_ 0.861855 0.830968 0.894794 0.0
C_ C_ 0.836823 0.841934 0.920973 0.0
C_ C_ 0.813523 0.816344 0.940606 0.0
C_ C_ 0.698628 0.96377 0.832722 0.0
C_ C_ 0.667933 0.955274 0.860336 0.0
C_ C_ 0.948927 0.966227 0.863507 0.0
C_ C_ 0.91998 0.958221 0.889932 0.0
C_ C_ 0.945562 0.942891 0.914044 0.0
C_ C_ 0.663388 0.931971 0.911023 0.0
C_ C_ 0.690729 0.93621 0.883871 0.0
C_ C_ 0.92031 0.920597 0.935137 0.0
C_ C_ 0.667221 0.903324 0.93031 0.0
C_ C_ 0.902952 0.842775 0.510949 0.0
C_ C_ 0.916792 0.87247 0.992992 0.0
C_ C_ 0.941206 0.867802 0.965202 0.0
C_ C_ 0.952968 0.833356 0.956373 0.0
C_ C_ 0.93921 0.804352 0.975242 0.0
C_ C_ 0.772014 0.789998 0.522948 0.0
C_ C_ 0.762653 0.820771 0.542517 0.0
C_ C_ 0.715187 0.838822 0.539981 0.0
C_ C_ 0.706251 0.867352 0.559458 0.0
C_ C_ 0.747771 0.88051 0.578147 0.0
C_ C_ 0.794133 0.863273 0.580331 0.0
C_ C_ 0.800068 0.831574 0.564781 0.0
C_ C_ 0.814769 0.870719 0.608527 0.0
C_ C_ 0.742217 0.898598 0.604984 0.0
C_ C_ 0.830943 0.980298 0.657908 0.0
C_ C_ 0.80574 0.955623 0.638186 0.0
C_ C_ 0.804812 0.919032 0.644794 0.0
C_ C_ 0.829843 0.908066 0.670973 0.0
C_ C_ 0.853144 0.933656 0.690606 0.0
C_ C_ 0.968039 0.78623 0.582722 0.0
C_ C_ 0.998734 0.794726 0.610336 0.0
C_ C_ 0.717739 0.783773 0.613507 0.0
C_ C_ 0.746686 0.791779 0.639932 0.0
C_ C_ 0.721104 0.807109 0.664044 0.0
C_ C_ 0.00327862 0.818029 0.661023 0.0
C_ C_ 0.975938 0.81379 0.633871 0.0
C_ C_ 0.746357 0.829403 0.685137 0.0
C_ C_ 0.999445 0.846676 0.68031 0.0
C_ C_ 0.763715 0.907225 0.760949 0.0
C_ C_ 0.749875 0.87753 0.742992 0.0
C_ C_ 0.725461 0.882198 0.715202 0.0
C_ C_ 0.713699 0.916644 0.706373 0.0
C_ C_ 0.727456 0.945648 0.725242 0.0
N_ N_ 0.852935 0.719087 0.566102 0.0
N_ N_ 0.783611 0.642872 0.626543 0.0
N_ N_ 0.711527 0.601806 0.55365 0.0
N_ N_ 0.754235 0.690701 0.4986 0.0
N_ N_ 0.813732 0.530913 0.816102 0.0
N_ N_ 0.883056 0.607128 0.876543 0.0
N_ N_ 0.95514 0.648194 0.80365 0.0
N_ N_ 0.912431 0.559299 0.7486 0.0
N_ N_ 0.813732 0.780913 0.933898 0.0
N_ N_ 0.883056 0.857128 0.873457 0.0
N_ N_ 0.95514 0.898194 0.94635 0.0
N_ N_ 0.912431 0.809299 0.00139979 0.0
N_ N_ 0.852935 0.969087 0.683898 0.0
N_ N_ 0.783611 0.892872 0.623457 0.0
N_ N_ 0.711527 0.851806 0.69635 0.0
N_ N_ 0.754235 0.940701 0.7514 0.0
O_ O_ 0.79885 0.514997 0.717173 0.0
O_ O_ 0.743984 0.534476 0.750578 0.0
O_ O_ 0.695457 0.655721 0.634274 0.0
O_ O_ 0.865986 0.620132 0.63586 0.0
O_ O_ 0.925653 0.551058 0.672831 0.0
O_ O_ 0.978891 0.510599 0.684197 0.0
O_ O_ 0.95354 0.605994 0.559287 0.0
O_ O_ 0.78749 0.569983 0.549288 0.0
O_ O_ 0.867816 0.735003 0.967173 0.0
O_ O_ 0.922682 0.715524 0.500578 0.0
O_ O_ 0.97121 0.594279 0.884274 0.0
O_ O_ 0.80068 0.629868 0.88586 0.0
O_ O_ 0.741013 0.698942 0.922831 0.0
O_ O_ 0.687776 0.739401 0.934197 0.0
O_ O_ 0.713127 0.644007 0.809287 0.0
O_ O_ 0.879177 0.680017 0.799288 0.0
O_ O_ 0.867816 0.985003 0.782827 0.0
O_ O_ 0.922682 0.965524 0.749422 0.0
O_ O_ 0.97121 0.844279 0.865726 0.0
O_ O_ 0.80068 0.879868 0.86414 0.0
O_ O_ 0.741013 0.948942 0.827169 0.0
O_ O_ 0.687776 0.989401 0.815803 0.0
O_ O_ 0.713127 0.894007 0.940713 0.0
O_ O_ 0.879177 0.930017 0.950712 0.0
O_ O_ 0.79885 0.764997 0.532827 0.0
O_ O_ 0.743984 0.784476 0.999422 0.0
O_ O_ 0.695457 0.905721 0.615726 0.0
O_ O_ 0.865986 0.870132 0.61414 0.0
O_ O_ 0.925653 0.801058 0.577169 0.0
O_ O_ 0.978891 0.760599 0.565803 0.0
O_ O_ 0.95354 0.855994 0.690713 0.0
O_ O_ 0.78749 0.819983 0.700712 0.0
