_cell_length_a 25.179
_cell_length_b 37.484199844079754
_cell_length_c 44.4702
_cell_angle_alpha 90.0
_cell_angle_beta 90.0
_cell_angle_gamma 94.03100043039683
_symmetry_space_group_name_H-M         'P 1'
_symmetry_Int_Tables_number            1
loop_
_symmetry_equiv_pos_as_xyz
   'x, y, z'
                         
loop_
_atom_site_label
_atom_site_type_symbol
_atom_site_fract_x 
_atom_site_fract_y
_atom_site_fract_z
_atom_site_charge
Cd Cd 0.229502 0.0162301 0.213068 0.0
Cd Cd 0.11079 0.237947 0.461622 0.0
Cd Cd 0.10221 0.489731 0.286397 0.0
Cd Cd 0.229855 0.26395 0.0357259 0.0
H_ H_ 0.0223207 0.0792191 0.226789 0.0
H_ H_ 0.337251 0.136465 0.200669 0.0
H_ H_ 0.169898 0.0672689 0.183096 0.0
H_ H_ 0.193633 0.2716 0.109061 0.0
H_ H_ 0.183458 0.230686 0.150733 0.0
H_ H_ 0.146538 0.145385 0.0835798 0.0
H_ H_ 0.164988 0.188603 0.0448122 0.0
H_ H_ 0.0631545 0.00967438 0.148843 0.0
H_ H_ 0.119005 0.0324035 0.107457 0.0
H_ H_ 0.276639 0.0768056 0.117364 0.0
H_ H_ 0.106251 0.148354 0.462832 0.0
H_ H_ 0.101946 0.101725 1.00477453 0.0
H_ H_ 0.0219647 0.169538 0.0620955 0.0
H_ H_ 0.0401053 0.220656 0.0271139 0.0
H_ H_ 0.302496 0.154519 0.490048 0.0
H_ H_ 1.00088 0.125366 0.436518 0.0
H_ H_ 0.185302 0.181488 0.424963 0.0
H_ H_ 0.148639 0.488109 0.351514 0.0
H_ H_ 0.172875 0.0272176 0.39208 0.0
H_ H_ 0.196234 0.108261 0.323436 0.0
H_ H_ 0.146623 0.0699684 0.290243 0.0
H_ H_ 0.259308 0.222904 0.405396 0.0
H_ H_ 0.209476 0.208035 0.357838 0.0
H_ H_ 0.0646851 0.177985 0.367826 0.0
H_ H_ 0.240527 0.0989297 0.209914 0.0
H_ H_ 0.250365 0.153497 0.24467 0.0
H_ H_ 0.311924 0.0857169 0.31224 0.0
H_ H_ 0.28468 0.0343076 0.280701 0.0
H_ H_ 0.29384 0.406804 0.257092 0.0
H_ H_ 0.993422 0.366181 0.305208 0.0
H_ H_ 0.181728 0.438055 0.323765 0.0
H_ H_ 0.159422 0.318457 0.456061 0.0
H_ H_ 0.202667 0.357128 0.414528 0.0
H_ H_ 0.186071 0.271945 0.354157 0.0
H_ H_ 0.160232 0.231384 0.396095 0.0
H_ H_ 0.259017 0.473415 0.353455 0.0
H_ H_ 0.216245 0.461193 0.402802 0.0
H_ H_ 0.0627301 0.426248 0.380907 0.0
H_ H_ 0.219085 0.347665 0.0276487 0.0
H_ H_ 0.265173 0.396739 0.508105 0.0
H_ H_ 0.31637 0.331885 0.434826 0.0
H_ H_ 0.279369 0.279379 0.466119 0.0
H_ H_ 0.0230335 0.335468 0.0212477 0.0
H_ H_ 0.335526 0.377468 0.0616425 0.0
H_ H_ 0.166177 0.319885 0.0688318 0.0
H_ H_ 0.18093 0.0168872 0.148688 0.0
H_ H_ 0.161638 0.477305 0.103275 0.0
H_ H_ 0.147983 0.391892 0.171078 0.0
H_ H_ 0.197178 0.433694 0.206425 0.0
H_ H_ 0.0695462 0.267449 0.0970254 0.0
H_ H_ 0.123122 0.286813 0.139991 0.0
H_ H_ 0.283354 0.343739 0.121401 0.0
H_ H_ 0.125576 0.408687 0.280404 0.0
H_ H_ 0.0945077 0.356716 0.248136 0.0
H_ H_ 0.0256532 0.424327 0.186157 0.0
H_ H_ 0.0400667 0.474714 0.22108 0.0
C_ C_ 0.105831 0.0437966 0.231044 0.0
C_ C_ 0.0958479 0.0715564 0.208586 0.0
C_ C_ 0.0456987 0.0861461 0.207697 0.0
C_ C_ 0.0345654 0.113197 0.187137 0.0
C_ C_ 0.071731 0.122299 0.165338 0.0
C_ C_ 0.121345 0.107907 0.165846 0.0
C_ C_ 0.134818 0.0835271 0.187646 0.0
C_ C_ 0.154795 0.132029 0.150381 0.0
C_ C_ 0.0806824 0.156462 0.151247 0.0
C_ C_ 0.181968 0.244942 0.103556 0.0
C_ C_ 0.170663 0.220917 0.127083 0.0
C_ C_ 0.150801 0.185813 0.120496 0.0
C_ C_ 0.156146 0.17314 0.0906736 0.0
C_ C_ 0.169553 0.198027 0.0679317 0.0
C_ C_ 0.302108 0.0365956 0.163518 0.0
C_ C_ 0.331686 0.0403277 0.133901 0.0
C_ C_ 0.0482828 0.0284675 0.133877 0.0
C_ C_ 0.0758293 0.0378381 0.108359 0.0
C_ C_ 0.0516109 0.057445 0.0860336 0.0
C_ C_ 0.334863 0.0631102 0.0828345 0.0
C_ C_ 0.309589 0.0610217 0.111651 0.0
C_ C_ 0.0778367 0.0771731 0.0639218 0.0
C_ C_ 0.333661 0.0924467 0.0639224 0.0
C_ C_ 0.0941645 0.153363 0.48613 0.0
C_ C_ 0.0896472 0.126695 0.0089628 0.0
C_ C_ 0.0584424 0.131119 0.0350127 0.0
C_ C_ 0.0404929 0.164884 0.0411542 0.0
C_ C_ 0.0516436 0.192924 0.0213938 0.0
C_ C_ 0.229523 0.205087 0.478496 0.0
C_ C_ 0.238221 0.171464 0.461469 0.0
C_ C_ 0.273566 0.147095 0.471841 0.0
C_ C_ 0.277749 0.113363 0.455515 0.0
C_ C_ 0.242223 0.10492 0.432073 0.0
C_ C_ 0.203353 0.126964 0.424994 0.0
C_ C_ 0.206601 0.162195 0.436658 0.0
C_ C_ 0.190227 0.119331 0.394863 0.0
C_ C_ 0.251475 0.084707 0.406835 0.0
C_ C_ 0.157274 0.012291 0.346631 0.0
C_ C_ 0.180215 0.0344034 0.368236 0.0
C_ C_ 0.197367 0.068919 0.360671 0.0
C_ C_ 0.184425 0.0820212 0.332446 0.0
C_ C_ 0.156147 0.0596678 0.312585 0.0
C_ C_ 0.0335921 0.21397 0.416112 0.0
C_ C_ 0.0008200000000000429 0.204973 0.389364 0.0
C_ C_ 0.278698 0.210261 0.386649 0.0
C_ C_ 0.251156 0.204115 0.359431 0.0
C_ C_ 0.281426 0.193275 0.334922 0.0
C_ C_ 0.997026 0.182931 0.338144 0.0
C_ C_ 0.023546 0.186582 0.366452 0.0
C_ C_ 0.25913 0.173485 0.31125 0.0
C_ C_ 0.00143612 0.152958 0.319996 0.0
C_ C_ 0.24928 0.0970169 0.234176 0.0
C_ C_ 0.261819 0.127683 0.252353 0.0
C_ C_ 0.285488 0.123796 0.280026 0.0
C_ C_ 0.294043 0.0891754 0.291231 0.0
C_ C_ 0.275169 0.0604984 0.274461 0.0
C_ C_ 0.224274 0.457408 0.269417 0.0
C_ C_ 0.237469 0.426972 0.287983 0.0
C_ C_ 0.278772 0.40511 0.279773 0.0
C_ C_ 0.292152 0.375819 0.296985 0.0
C_ C_ 0.267128 0.370861 0.325197 0.0
C_ C_ 0.227796 0.393136 0.334014 0.0
C_ C_ 0.211266 0.419711 0.315312 0.0
C_ C_ 0.195807 0.374272 0.355095 0.0
C_ C_ 0.255583 0.337267 0.339419 0.0
C_ C_ 0.167508 0.307496 0.432849 0.0
C_ C_ 0.193465 0.329641 0.411345 0.0
C_ C_ 0.197133 0.316938 0.382517 0.0
C_ C_ 0.185554 0.281792 0.376479 0.0
C_ C_ 0.165456 0.259105 0.399008 0.0
C_ C_ 0.0292634 0.460537 0.330786 0.0
C_ C_ 0.00034572 0.454763 0.359676 0.0
C_ C_ 0.282366 0.463641 0.371288 0.0
C_ C_ 0.257051 0.457521 0.39896 0.0
C_ C_ 0.288184 0.443726 0.421922 0.0
C_ C_ 0.994966 0.431292 0.410354 0.0
C_ C_ 0.0240658 0.436728 0.383346 0.0
C_ C_ 0.266778 0.421662 0.443553 0.0
C_ C_ -0.00110569 0.403415 0.428953 0.0
C_ C_ 0.23914 0.342705 0.00668841 0.0
C_ C_ 0.264467 0.371532 0.497619 0.0
C_ C_ 0.290635 0.368731 0.470956 0.0
C_ C_ 0.296314 0.334465 0.458589 0.0
C_ C_ 0.277931 0.304423 0.475482 0.0
C_ C_ 0.102251 0.288139 0.0233579 0.0
C_ C_ 0.0907908 0.317412 0.0446681 0.0
C_ C_ 0.0437741 0.336189 0.042429 0.0
C_ C_ 0.0347602 0.363124 0.0636615 0.0
C_ C_ 0.0687863 0.36838 0.0883075 0.0
C_ C_ 0.115768 0.353168 0.0890572 0.0
C_ C_ 0.126292 0.326326 0.0689743 0.0
C_ C_ 0.151586 0.375993 0.103121 0.0
C_ C_ 0.0766843 0.401632 0.102837 0.0
C_ C_ 0.176765 0.490737 0.151149 0.0
C_ C_ 0.165638 0.467074 0.127737 0.0
C_ C_ 0.151229 0.43055 0.135157 0.0
C_ C_ 0.16035 0.419149 0.164087 0.0
C_ C_ 0.187644 0.443193 0.183665 0.0
C_ C_ 0.302916 0.288896 0.0839751 0.0
C_ C_ 0.333206 0.300508 0.111183 0.0
C_ C_ 0.0506554 0.283105 0.11447 0.0
C_ C_ 0.0799004 0.291825 0.139934 0.0
C_ C_ 0.0562478 0.308886 0.163334 0.0
C_ C_ 0.325685 0.32717 0.160427 0.0
C_ C_ 0.313257 0.326985 0.13001 0.0
C_ C_ 0.0815641 0.331865 0.183494 0.0
C_ C_ 0.325228 0.35841 0.17939 0.0
C_ C_ 0.102525 0.412519 0.259341 0.0
C_ C_ 0.0895784 0.382531 0.241053 0.0
C_ C_ 0.0616203 0.386363 0.213183 0.0
C_ C_ 0.0500816 0.422552 0.204681 0.0
C_ C_ 0.0557367 0.448872 0.22566 0.0
N_ N_ 0.185724 0.232308 0.074573 0.0
N_ N_ 0.131973 0.163038 0.144548 0.0
N_ N_ 0.0436918 0.101338 0.0540453 0.0
N_ N_ 0.0806818 0.188088 0.995196 0.0
N_ N_ 0.146053 0.0244968 0.31896 0.0
N_ N_ 0.219783 0.0939354 0.383489 0.0
N_ N_ 0.297375 0.154441 0.297991 0.0
N_ N_ 0.252747 0.0642758 0.24573 0.0
N_ N_ 0.159342 0.271174 0.426799 0.0
N_ N_ 0.212625 0.340878 0.357713 0.0
N_ N_ 0.303559 0.400636 0.452871 0.0
N_ N_ 0.250071 0.308797 0.501413 0.0
N_ N_ 0.192007 0.47821 0.177982 0.0
N_ N_ 0.129616 0.405914 0.112037 0.0
N_ N_ 0.0474557 0.35472 0.194338 0.0
N_ N_ 0.0827511 0.444843 0.251877 0.0
O_ O_ 0.136308 0.0197847 0.224472 0.0
O_ O_ 0.077573 0.038171 0.254382 0.0
O_ O_ 0.0486872 0.183365 0.156455 0.0
O_ O_ 0.206781 0.128037 0.147724 0.0
O_ O_ 0.265991 0.0575185 0.170514 0.0
O_ O_ 0.307515 0.00907712 0.180544 0.0
O_ O_ 0.290804 0.107155 0.0570779 0.0
O_ O_ 0.129379 0.0861976 0.0661919 0.0
O_ O_ 0.204652 0.23003 0.465237 0.0
O_ O_ 0.249419 0.213422 0.00574392 0.0
O_ O_ 0.298269 0.0708595 0.401761 0.0
O_ O_ 0.169521 0.142881 0.376796 0.0
O_ O_ 0.0745988 0.196355 0.422952 0.0
O_ O_ 0.0305413 0.24335 0.430607 0.0
O_ O_ 0.0480717 0.144246 0.309934 0.0
O_ O_ 0.209487 0.173974 0.301249 0.0
O_ O_ 0.199116 0.482939 0.281271 0.0
O_ O_ 0.251116 0.464034 0.245713 0.0
O_ O_ 0.262339 0.308452 0.324605 0.0
O_ O_ 0.149282 0.382834 0.363116 0.0
O_ O_ 0.0747969 0.449121 0.327747 0.0
O_ O_ 0.0206044 0.488095 0.315551 0.0
O_ O_ 0.0457904 0.39501 0.438019 0.0
O_ O_ 0.215196 0.409992 0.441856 0.0
O_ O_ 0.131317 0.262951 0.0321441 0.0
O_ O_ 0.0844344 0.286095 0.498582 0.0
O_ O_ 0.0370421 0.418169 0.115183 0.0
O_ O_ 0.198733 0.369606 0.111793 0.0
O_ O_ 0.267091 0.306895 0.0741591 0.0
O_ O_ 0.308977 0.259913 0.071175 0.0
O_ O_ 0.281738 0.373992 0.186163 0.0
O_ O_ 0.130862 0.329281 0.19335 0.0
Cd Cd 0.228061 0.0126602 0.715133 0.0
Cd Cd 0.0995504 0.238931 0.964998 0.0
Cd Cd 0.104012 0.487874 0.78526 0.0
Cd Cd 0.232745 0.26123 0.534806 0.0
H_ H_ 0.0100956 0.0751017 0.722792 0.0
H_ H_ 0.420077 0.161817 0.722953 0.0
H_ H_ 0.163789 0.0668033 0.684639 0.0
H_ H_ 0.157724 0.25753 0.595011 0.0
H_ H_ 0.119112 0.215418 0.631004 0.0
H_ H_ 0.171436 0.12791 0.580913 0.0
H_ H_ 0.210808 0.172215 0.542659 0.0
H_ H_ 0.068414 0.0190525 0.652546 0.0
H_ H_ 0.120624 0.0461432 0.611902 0.0
H_ H_ 0.267525 0.076592 0.621225 0.0
H_ H_ 0.122177 0.150331 0.967811 0.0
H_ H_ 0.0839329 0.0988948 0.495951 0.0
H_ H_ 0.030188 0.173182 0.562235 0.0
H_ H_ 0.0473165 0.220737 0.521989 0.0
H_ H_ 0.297553 0.160492 0.988497 0.0
H_ H_ 0.99390635 0.117022 0.944408 0.0
H_ H_ 0.169269 0.189299 0.929263 0.0
H_ H_ 0.170042 0.492387 0.849691 0.0
H_ H_ 0.213302 0.0445504 0.885735 0.0
H_ H_ 0.197684 0.123731 0.816296 0.0
H_ H_ 0.156951 0.0756179 0.784092 0.0
H_ H_ 0.280189 0.236429 0.894954 0.0
H_ H_ 0.2338 0.227874 0.845201 0.0
H_ H_ 0.0595592 0.172404 0.870125 0.0
H_ H_ 0.234459 0.0961426 0.709192 0.0
H_ H_ 0.263911 0.151176 0.737414 0.0
H_ H_ 0.307483 0.0867697 0.810296 0.0
H_ H_ 0.27706 0.0319072 0.782911 0.0
H_ H_ 0.209308 0.391779 0.743868 0.0
H_ H_ -0.00021400000000004749 0.373105 0.811613 0.0
H_ H_ 0.23058 0.444663 0.830101 0.0
H_ H_ 0.0822322 0.316817 0.945121 0.0
H_ H_ 0.107786 0.358346 0.903047 0.0
H_ H_ 0.233366 0.291328 0.879685 0.0
H_ H_ 0.206453 0.250552 0.919517 0.0
H_ H_ 0.277723 0.49601 0.858404 0.0
H_ H_ 0.230236 0.473832 0.903126 0.0
H_ H_ 0.0650362 0.426721 0.883619 0.0
H_ H_ 0.237184 0.343225 0.536596 0.0
H_ H_ 0.254157 0.397409 0.997714 0.0
H_ H_ 0.32849 0.325688 0.939339 0.0
H_ H_ 0.30067 0.274858 0.976222 0.0
H_ H_ 0.0229821 0.332717 0.521595 0.0
H_ H_ 0.442135 0.421709 0.518218 0.0
H_ H_ 0.169809 0.323643 0.569123 0.0
H_ H_ 0.15599 0.00697416 0.657842 0.0
H_ H_ 0.114086 0.464862 0.622609 0.0
H_ H_ 0.174628 0.3813 0.670925 0.0
H_ H_ 0.220664 0.425026 0.706453 0.0
H_ H_ 0.0669908 0.26546 0.596362 0.0
H_ H_ 0.114108 0.272915 0.647559 0.0
H_ H_ 0.317098 0.352413 0.60203 0.0
H_ H_ 0.0970659 0.405347 0.784454 0.0
H_ H_ 0.0848479 0.353671 0.754646 0.0
H_ H_ 0.0261646 0.41971 0.682752 0.0
H_ H_ 0.0469925 0.469232 0.715202 0.0
C_ C_ 0.102211 0.041362 0.731206 0.0
C_ C_ 0.0951514 0.0735947 0.71274 0.0
C_ C_ 0.0461332 0.0886792 0.712031 0.0
C_ C_ 0.0391444 0.11766 0.693508 0.0
C_ C_ 0.0805519 0.130574 0.674283 0.0
C_ C_ 0.128291 0.115951 0.675865 0.0
C_ C_ 0.13411 0.0845318 0.691012 0.0
C_ C_ 0.151652 0.125149 0.648289 0.0
C_ C_ 0.07547 0.146276 0.645987 0.0
C_ C_ 0.158294 0.229123 0.589548 0.0
C_ C_ 0.135352 0.205514 0.610369 0.0
C_ C_ 0.140599 0.169048 0.607212 0.0
C_ C_ 0.162257 0.155733 0.580418 0.0
C_ C_ 0.184464 0.182231 0.558789 0.0
C_ C_ 0.300859 0.0374531 0.667728 0.0
C_ C_ 0.332144 0.0470266 0.64008 0.0
C_ C_ 0.0494159 0.0330341 0.635029 0.0
C_ C_ 0.0780138 0.0451098 0.611705 0.0
C_ C_ 0.054117 0.0569743 0.586605 0.0
C_ C_ 0.326568 0.0666919 0.588455 0.0
C_ C_ 0.30666 0.0662442 0.617507 0.0
C_ C_ 0.0800913 0.0820501 0.566168 0.0
C_ C_ 0.325589 0.0966816 0.569494 0.0
C_ C_ 0.101677 0.155915 0.989583 0.0
C_ C_ 0.0767857 0.125066 0.503565 0.0
C_ C_ 0.0541052 0.131406 0.532199 0.0
C_ C_ 0.0495557 0.167601 0.541127 0.0
C_ C_ 0.0637283 0.195829 0.520425 0.0
C_ C_ 0.222478 0.209481 0.981321 0.0
C_ C_ 0.234226 0.179762 0.960536 0.0
C_ C_ 0.273913 0.155941 0.968049 0.0
C_ C_ 0.287672 0.131161 0.946113 0.0
C_ C_ 0.271788 0.137055 0.916534 0.0
C_ C_ 0.229429 0.157762 0.909849 0.0
C_ C_ 0.207017 0.176892 0.932805 0.0
C_ C_ 0.204521 0.143299 0.884672 0.0
C_ C_ 0.268983 0.110156 0.894715 0.0
C_ C_ 0.168565 0.0262464 0.846414 0.0
C_ C_ 0.199196 0.0526503 0.864042 0.0
C_ C_ 0.20658 0.0881262 0.854906 0.0
C_ C_ 0.18782 0.0969148 0.825701 0.0
C_ C_ 0.164334 0.0692765 0.807006 0.0
C_ C_ 0.0301406 0.212526 0.917545 0.0
C_ C_ -0.000926669 0.20281 0.891071 0.0
C_ C_ 0.299668 0.223502 0.876229 0.0
C_ C_ 0.275327 0.220004 0.847785 0.0
C_ C_ 0.298703 0.199226 0.826057 0.0
C_ C_ 0.997192 0.182038 0.839131 0.0
C_ C_ 0.0210255 0.183791 0.867207 0.0
C_ C_ 0.27458 0.182834 0.801419 0.0
C_ C_ 0.00106865 0.154992 0.818417 0.0
C_ C_ 0.248591 0.0954272 0.731967 0.0
C_ C_ 0.260808 0.125786 0.748412 0.0
C_ C_ 0.284083 0.12372 0.777112 0.0
C_ C_ 0.291552 0.0896157 0.78801 0.0
C_ C_ 0.274595 0.0592166 0.772758 0.0
C_ C_ 0.223519 0.456048 0.77115 0.0
C_ C_ 0.22095 0.421207 0.785439 0.0
C_ C_ 0.212182 0.389762 0.768099 0.0
C_ C_ 0.206955 0.356731 0.782317 0.0
C_ C_ 0.210664 0.355599 0.814511 0.0
C_ C_ 0.219487 0.386662 0.83024 0.0
C_ C_ 0.22445 0.420541 0.816006 0.0
C_ C_ 0.200643 0.379979 0.859692 0.0
C_ C_ 0.179794 0.331709 0.831831 0.0
C_ C_ 0.117342 0.31233 0.930283 0.0
C_ C_ 0.130527 0.334467 0.906558 0.0
C_ C_ 0.168383 0.326239 0.886743 0.0
C_ C_ 0.197874 0.295395 0.890833 0.0
C_ C_ 0.182557 0.27271 0.91538 0.0
C_ C_ 0.0339312 0.466402 0.835032 0.0
C_ C_ 1.00202 0.456575 0.860708 0.0
C_ C_ 0.296855 0.477134 0.872716 0.0
C_ C_ 0.271236 0.46759 0.899413 0.0
C_ C_ 0.29402 0.442846 0.919311 0.0
C_ C_ 0.997191 0.431406 0.910633 0.0
C_ C_ 0.0253663 0.438423 0.885123 0.0
C_ C_ 0.268699 0.419593 0.939526 0.0
C_ C_ 0.00174942 0.403777 0.930782 0.0
C_ C_ 0.244652 0.341545 0.512632 0.0
C_ C_ 0.264037 0.369845 0.99143 0.0
C_ C_ 0.293193 0.363047 0.964664 0.0
C_ C_ 0.30314 0.328638 0.958224 0.0
C_ C_ 0.284861 0.301366 0.977477 0.0
C_ C_ 0.111566 0.294173 0.522084 0.0
C_ C_ 0.103453 0.328021 0.538686 0.0
C_ C_ 0.0522407 0.343293 0.536964 0.0
C_ C_ 0.0406112 0.370022 0.558078 0.0
C_ C_ 0.0833754 0.385546 0.576472 0.0
C_ C_ 0.132735 0.372411 0.57743 0.0
C_ C_ 0.141109 0.340556 0.561179 0.0
C_ C_ 0.151631 0.379335 0.605092 0.0
C_ C_ 0.075405 0.398768 0.606051 0.0
C_ C_ 0.165354 0.481998 0.65797 0.0
C_ C_ 0.139033 0.457259 0.640178 0.0
C_ C_ 0.136524 0.42109 0.646439 0.0
C_ C_ 0.169114 0.409558 0.669261 0.0
C_ C_ 0.198265 0.43444 0.687612 0.0
C_ C_ 0.309818 0.287672 0.578341 0.0
C_ C_ 0.34592 0.300144 0.602117 0.0
C_ C_ 0.0487138 0.279734 0.614448 0.0
C_ C_ 0.0765807 0.286498 0.642028 0.0
C_ C_ 0.0525089 0.304689 0.665192 0.0
C_ C_ 0.364002 0.342973 0.641201 0.0
C_ C_ 0.341706 0.334254 0.613435 0.0
C_ C_ 0.0783843 0.326791 0.688185 0.0
C_ C_ 0.348194 0.368345 0.661762 0.0
C_ C_ 0.0932371 0.41005 0.760741 0.0
C_ C_ 0.0822476 0.379838 0.743369 0.0
C_ C_ 0.0589373 0.382078 0.715017 0.0
C_ C_ 0.0481678 0.415901 0.70453 0.0
C_ C_ 0.0604645 0.445748 0.722103 0.0
N_ N_ 0.185395 0.217474 0.565666 0.0
N_ N_ 0.121839 0.14565 0.63128 0.0
N_ N_ 0.0437854 0.103228 0.555021 0.0
N_ N_ 0.0880266 0.187653 0.494866 0.0
N_ N_ 0.151712 0.0362153 0.81896 0.0
N_ N_ 0.230426 0.115267 0.874707 0.0
N_ N_ 0.30589 0.156874 0.790796 0.0
N_ N_ 0.255103 0.0627106 0.7438 0.0
N_ N_ 0.139614 0.280561 0.933153 0.0
N_ N_ 0.175897 0.346251 0.860282 0.0
N_ N_ 0.297971 0.390151 0.94164 0.0
N_ N_ 0.254058 0.30839 0.00142753 0.0
N_ N_ 0.193147 0.470358 0.682495 0.0
N_ N_ 0.118054 0.396375 0.623123 0.0
N_ N_ 0.0433931 0.350876 0.697229 0.0
N_ N_ 0.0811734 0.441844 0.750501 0.0
O_ O_ 0.133168 0.0160988 0.722832 0.0
O_ O_ 0.0722159 0.0351792 0.754059 0.0
O_ O_ 0.0443231 0.172587 0.64203 0.0
O_ O_ 0.193297 0.110483 0.636765 0.0
O_ O_ 0.251402 0.0386898 0.666818 0.0
O_ O_ 0.319752 0.0221316 0.69017 0.0
O_ O_ 0.292411 0.122002 0.5726 0.0
O_ O_ 0.124922 0.0752674 0.551206 0.0
O_ O_ 0.201173 0.236164 0.971841 0.0
O_ O_ 0.254878 0.211328 0.502557 0.0
O_ O_ 0.311055 0.092451 0.888204 0.0
O_ O_ 0.151995 0.146861 0.880606 0.0
O_ O_ 0.0751094 0.200341 0.92257 0.0
O_ O_ 0.0177756 0.238464 0.9333 0.0
O_ O_ 0.0353551 0.130637 0.822114 0.0
O_ O_ 0.224441 0.184328 0.793729 0.0
O_ O_ 0.200941 0.481983 0.782709 0.0
O_ O_ 0.251723 0.461626 0.748163 0.0
O_ O_ 0.13684 0.313978 0.820206 0.0
O_ O_ 0.181907 0.40604 0.875354 0.0
O_ O_ 0.0754309 0.45003 0.828426 0.0
O_ O_ 0.0197193 0.489129 0.817112 0.0
O_ O_ 0.0463368 0.397122 0.943446 0.0
O_ O_ 0.215979 0.41661 0.939837 0.0
O_ O_ 0.137528 0.270484 0.535126 0.0
O_ O_ 0.0723071 0.28351 1.00129793 0.0
O_ O_ 0.0318894 0.414253 0.615318 0.0
O_ O_ 0.197572 0.369145 0.614232 0.0
O_ O_ 0.262422 0.297115 0.577882 0.0
O_ O_ 0.322452 0.264584 0.558388 0.0
O_ O_ 0.331887 0.400174 0.654055 0.0
O_ O_ 0.114501 0.316009 0.7059 0.0
Cd Cd 0.228295 0.513931 0.213829 0.0
Cd Cd 0.102853 0.738688 0.464016 0.0
Cd Cd 0.101945 0.987489 0.286873 0.0
Cd Cd 0.227801 0.763455 0.0371942 0.0
H_ H_ 0.0193022 0.584212 0.2275 0.0
H_ H_ 0.333255 0.625914 0.188014 0.0
H_ H_ 0.168511 0.569231 0.181136 0.0
H_ H_ 0.165577 0.756265 0.0990507 0.0
H_ H_ 0.127095 0.711732 0.13366 0.0
H_ H_ 0.159953 0.631776 0.0695229 0.0
H_ H_ 0.199572 0.677028 0.0364603 0.0
H_ H_ 0.0722281 0.528663 0.157518 0.0
H_ H_ 0.119551 0.538797 0.108436 0.0
H_ H_ 0.275512 0.583227 0.121144 0.0
H_ H_ 0.127211 0.656417 0.470859 0.0
H_ H_ 0.111177 0.604684 1.00418588 0.0
H_ H_ 0.0249634 0.666343 0.0667687 0.0
H_ H_ 0.0361385 0.718922 0.0332938 0.0
H_ H_ 0.307188 0.665284 0.48118 0.0
H_ H_ 1.00102227 0.623937 0.437636 0.0
H_ H_ 0.169041 0.684994 0.427511 0.0
H_ H_ 0.144789 0.985032 0.353119 0.0
H_ H_ 0.185746 0.525861 0.389802 0.0
H_ H_ 0.176645 0.615359 0.330627 0.0
H_ H_ 0.143073 0.57178 0.289944 0.0
H_ H_ 0.265822 0.734088 0.40221 0.0
H_ H_ 0.219578 0.721722 0.354349 0.0
H_ H_ 0.0601025 0.673656 0.369077 0.0
H_ H_ 0.232544 0.600972 0.212757 0.0
H_ H_ 0.257084 0.651661 0.246692 0.0
H_ H_ 0.29675 0.580086 0.31495 0.0
H_ H_ 0.277019 0.529343 0.281241 0.0
H_ H_ 0.27619 0.904372 0.249893 0.0
H_ H_ 0.99284133 0.866463 0.305088 0.0
H_ H_ 0.182784 0.943989 0.323798 0.0
H_ H_ 0.14443 0.738573 0.394557 0.0
H_ H_ 0.187115 0.774744 0.356845 0.0
H_ H_ 0.177724 0.865019 0.413864 0.0
H_ H_ 0.154546 0.824395 0.456459 0.0
H_ H_ 0.270586 0.986603 0.347218 0.0
H_ H_ 0.21387 0.967292 0.393843 0.0
H_ H_ 0.0625258 0.925895 0.382647 0.0
H_ H_ 0.215322 0.843904 0.0303338 0.0
H_ H_ 0.25563 0.900338 0.504558 0.0
H_ H_ 0.293014 0.832497 0.431145 0.0
H_ H_ 0.271617 0.781597 0.466421 0.0
H_ H_ 0.0337748 0.843717 0.015918 0.0
H_ H_ 0.332777 0.876936 0.0618745 0.0
H_ H_ 0.168764 0.816276 0.0699769 0.0
H_ H_ 0.173758 0.519309 0.147949 0.0
H_ H_ 0.144851 0.976629 0.107987 0.0
H_ H_ 0.159697 0.890037 0.168842 0.0
H_ H_ 0.198321 0.93115 0.207649 0.0
H_ H_ 0.0693194 0.764827 0.0961899 0.0
H_ H_ 0.118795 0.779353 0.14462 0.0
H_ H_ 0.275539 0.826966 0.130565 0.0
H_ H_ 0.117391 0.904058 0.281866 0.0
H_ H_ 0.108389 0.854466 0.247895 0.0
H_ H_ 0.029073 0.920926 0.186775 0.0
H_ H_ 0.0470839 0.971345 0.221537 0.0
C_ C_ 0.108267 0.543961 0.228958 0.0
C_ C_ 0.0979291 0.573136 0.208334 0.0
C_ C_ 0.0493978 0.591519 0.211465 0.0
C_ C_ 0.040645 0.618246 0.190568 0.0
C_ C_ 0.0834075 0.631481 0.172031 0.0
C_ C_ 0.129607 0.613955 0.168941 0.0
C_ C_ 0.136178 0.584382 0.186598 0.0
C_ C_ 0.147194 0.621111 0.139666 0.0
C_ C_ 0.0776953 0.648225 0.144617 0.0
C_ C_ 0.166472 0.728604 0.0935986 0.0
C_ C_ 0.138867 0.705141 0.110716 0.0
C_ C_ 0.137066 0.668328 0.103141 0.0
C_ C_ 0.163891 0.658265 0.0773417 0.0
C_ C_ 0.18404 0.683855 0.0576372 0.0
C_ C_ 0.304644 0.539289 0.16786 0.0
C_ C_ 0.334215 0.547348 0.140658 0.0
C_ C_ 0.050354 0.535228 0.137141 0.0
C_ C_ 0.0772115 0.541535 0.11032 0.0
C_ C_ 0.0519495 0.555194 0.0850586 0.0
C_ C_ 0.336555 0.569241 0.0897842 0.0
C_ C_ 0.310221 0.565978 0.117244 0.0
C_ C_ 0.0769573 0.578009 0.0649405 0.0
C_ C_ 0.331992 0.596733 0.0692711 0.0
C_ C_ 0.107769 0.660536 0.492114 0.0
C_ C_ 0.0913334 0.629499 0.00969902 0.0
C_ C_ 0.0595185 0.630268 0.0350695 0.0
C_ C_ 0.0406241 0.664203 0.0447312 0.0
C_ C_ 0.050917 0.694593 0.0265105 0.0
C_ C_ 0.224755 0.708559 0.475059 0.0
C_ C_ 0.234392 0.675958 0.458315 0.0
C_ C_ 0.278581 0.655829 0.463781 0.0
C_ C_ 0.293031 0.630446 0.442846 0.0
C_ C_ 0.266423 0.626654 0.41658 0.0
C_ C_ 0.224628 0.64768 0.409748 0.0
C_ C_ 0.204346 0.670123 0.431345 0.0
C_ C_ 0.191416 0.628433 0.390421 0.0
C_ C_ 0.256891 0.59625 0.400228 0.0
C_ C_ 0.166454 0.513686 0.344378 0.0
C_ C_ 0.181598 0.536873 0.367197 0.0
C_ C_ 0.191852 0.572998 0.361258 0.0
C_ C_ 0.174583 0.585815 0.334226 0.0
C_ C_ 0.159892 0.562571 0.310699 0.0
C_ C_ 0.0305613 0.710406 0.418952 0.0
C_ C_ 0.00049649 0.70339 0.3907 0.0
C_ C_ 0.284906 0.72126 0.384029 0.0
C_ C_ 0.258037 0.714279 0.357284 0.0
C_ C_ 0.282266 0.696398 0.334692 0.0
C_ C_ 0.996143 0.683093 0.338267 0.0
C_ C_ 0.0251376 0.687739 0.365715 0.0
C_ C_ 0.256616 0.675486 0.312127 0.0
C_ C_ 0.00144381 0.655931 0.317291 0.0
C_ C_ 0.238957 0.596624 0.236702 0.0
C_ C_ 0.25103 0.62626 0.255476 0.0
C_ C_ 0.273702 0.620377 0.283739 0.0
C_ C_ 0.279929 0.585501 0.29287 0.0
C_ C_ 0.26861 0.557077 0.273643 0.0
C_ C_ 0.226068 0.963176 0.268667 0.0
C_ C_ 0.229506 0.929174 0.285673 0.0
C_ C_ 0.260988 0.903195 0.274498 0.0
C_ C_ 0.270467 0.872821 0.291507 0.0
C_ C_ 0.254642 0.871115 0.321701 0.0
C_ C_ 0.223151 0.896212 0.332349 0.0
C_ C_ 0.20519 0.923662 0.314163 0.0
C_ C_ 0.196071 0.881275 0.356308 0.0
C_ C_ 0.242611 0.839761 0.337111 0.0
C_ C_ 0.155249 0.764885 0.399808 0.0
C_ C_ 0.178755 0.785749 0.377942 0.0
C_ C_ 0.187115 0.823299 0.382706 0.0
C_ C_ 0.177162 0.837588 0.411477 0.0
C_ C_ 0.15614 0.814084 0.434178 0.0
C_ C_ 0.0331724 0.962643 0.333468 0.0
C_ C_ 0.0034600000000000186 0.958251 0.361993 0.0
C_ C_ 0.284614 0.969103 0.364444 0.0
C_ C_ 0.255945 0.961047 0.392105 0.0
C_ C_ 0.281569 0.944543 0.414714 0.0
C_ C_ 0.99726 0.933792 0.411768 0.0
C_ C_ 0.0229615 0.937324 0.384426 0.0
C_ C_ 0.255539 0.923866 0.436933 0.0
C_ C_ 1.00416 0.90772 0.433906 0.0
C_ C_ 0.229346 0.84141 0.0080021 0.0
C_ C_ 0.258127 0.875146 0.493929 0.0
C_ C_ 0.275846 0.870398 0.465012 0.0
C_ C_ 0.283828 0.836235 0.454807 0.0
C_ C_ 0.265077 0.807301 0.472287 0.0
C_ C_ 0.106413 0.791207 0.0219442 0.0
C_ C_ 0.097833 0.822006 0.0412117 0.0
C_ C_ 0.054399 0.843291 0.0370506 0.0
C_ C_ 0.0395587 0.867799 0.0592267 0.0
C_ C_ 0.071222 0.872073 0.0839287 0.0
C_ C_ 0.116327 0.853949 0.0883924 0.0
C_ C_ 0.132999 0.829217 0.0661549 0.0
C_ C_ 0.148714 0.873285 0.107122 0.0
C_ C_ 0.0801713 0.904238 0.100249 0.0
C_ C_ 0.172007 0.990458 0.153964 0.0
C_ C_ 0.153734 0.96626 0.130059 0.0
C_ C_ 0.147615 0.93008 0.136796 0.0
C_ C_ 0.158405 0.917923 0.165858 0.0
C_ C_ 0.178351 0.941835 0.18788 0.0
C_ C_ 0.300509 0.78865 0.0832291 0.0
C_ C_ 0.33185 0.79533 0.110998 0.0
C_ C_ 0.0507681 0.782081 0.114033 0.0
C_ C_ 0.0783162 0.789071 0.14102 0.0
C_ C_ 0.052549 0.803938 0.165739 0.0
C_ C_ 0.336834 0.81676 0.161545 0.0
C_ C_ 0.308946 0.812549 0.134682 0.0
C_ C_ 0.0765604 0.823795 0.189795 0.0
C_ C_ 0.332014 0.845836 0.180859 0.0
C_ C_ 0.101907 0.908048 0.26023 0.0
C_ C_ 0.0875275 0.87708 0.243126 0.0
C_ C_ 0.0572109 0.881076 0.217576 0.0
C_ C_ 0.0455053 0.915282 0.208453 0.0
C_ C_ 0.0598295 0.94535 0.22614 0.0
N_ N_ 0.187197 0.718823 0.0672728 0.0
N_ N_ 0.116069 0.642314 0.124938 0.0
N_ N_ 0.0436252 0.599222 0.052739 0.0
N_ N_ 0.0838258 0.692707 1.00241805 0.0
N_ N_ 0.151053 0.527185 0.317438 0.0
N_ N_ 0.210742 0.59713 0.384753 0.0
N_ N_ 0.289743 0.649725 0.303497 0.0
N_ N_ 0.247153 0.563543 0.246583 0.0
N_ N_ 0.147137 0.777978 0.428307 0.0
N_ N_ 0.208135 0.84642 0.358692 0.0
N_ N_ 0.289353 0.899631 0.446834 0.0
N_ N_ 0.241951 0.812775 0.499483 0.0
N_ N_ 0.185155 0.977082 0.181332 0.0
N_ N_ 0.127271 0.904709 0.113559 0.0
N_ N_ 0.0425529 0.84953 0.198435 0.0
N_ N_ 0.0839876 0.939951 0.252936 0.0
O_ O_ 0.130895 0.517234 0.217646 0.0
O_ O_ 0.0808678 0.53794 0.252866 0.0
O_ O_ 0.0314651 0.658285 0.136088 0.0
O_ O_ 0.180849 0.600545 0.125614 0.0
O_ O_ 0.265626 0.556265 0.17533 0.0
O_ O_ 0.310691 0.511885 0.184156 0.0
O_ O_ 0.285747 0.603486 0.0573906 0.0
O_ O_ 0.120544 0.569255 0.0516829 0.0
O_ O_ 0.199298 0.732963 0.463641 0.0
O_ O_ 0.252797 0.717911 0.00092669 0.0
O_ O_ 0.274269 0.565134 0.40956 0.0
O_ O_ 0.139639 0.632447 0.389101 0.0
O_ O_ 0.074328 0.696863 0.423613 0.0
O_ O_ 0.0174592 0.735147 0.436966 0.0
O_ O_ 0.038106 0.632857 0.31835 0.0
O_ O_ 0.202477 0.671389 0.309498 0.0
O_ O_ 0.196554 0.986771 0.277538 0.0
O_ O_ 0.255196 0.968852 0.246728 0.0
O_ O_ 0.276524 0.81649 0.340552 0.0
O_ O_ 0.147717 0.891136 0.364948 0.0
O_ O_ 0.0697435 0.943757 0.326577 0.0
O_ O_ 0.0243236 0.989313 0.316604 0.0
O_ O_ 0.0414563 0.885895 0.433291 0.0
O_ O_ 0.202171 0.921171 0.441206 0.0
O_ O_ 0.130223 0.765488 0.0340447 0.0
O_ O_ 0.0769121 0.787185 0.49522 0.0
O_ O_ 0.0418489 0.925017 0.107732 0.0
O_ O_ 0.200824 0.869079 0.110697 0.0
O_ O_ 0.258236 0.802573 0.0793198 0.0
O_ O_ 0.309598 0.762613 0.0668392 0.0
O_ O_ 0.285272 0.853709 0.190983 0.0
O_ O_ 0.127755 0.828498 0.192944 0.0
Cd Cd 0.233732 0.513981 0.714741 0.0
Cd Cd 0.0995613 0.738393 0.967197 0.0
Cd Cd 0.105695 0.99153 0.786646 0.0
Cd Cd 0.227519 0.766089 0.533415 0.0
H_ H_ 0.0174438 0.580847 0.724185 0.0
H_ H_ 0.336906 0.632066 0.6929 0.0
H_ H_ 0.161939 0.563215 0.679933 0.0
H_ H_ 0.159616 0.766411 0.595731 0.0
H_ H_ 0.13599 0.729976 0.6357 0.0
H_ H_ 0.17112 0.638823 0.583012 0.0
H_ H_ 0.21473 0.680623 0.547041 0.0
H_ H_ 0.0693239 0.51737 0.654757 0.0
H_ H_ 0.123547 0.53559 0.609247 0.0
H_ H_ 0.271163 0.57906 0.620666 0.0
H_ H_ 0.119318 0.657914 0.970642 0.0
H_ H_ 0.101526 0.605427 0.499752 0.0
H_ H_ 0.0146617 0.670377 0.558175 0.0
H_ H_ 0.0374379 0.721583 0.526876 0.0
H_ H_ 0.315385 0.675225 0.973691 0.0
H_ H_ 1.00115 0.626653 0.935615 0.0
H_ H_ 0.164669 0.684861 0.931835 0.0
H_ H_ 0.166388 0.998146 0.853393 0.0
H_ H_ 0.210957 0.538018 0.885687 0.0
H_ H_ 0.179162 0.617891 0.823167 0.0
H_ H_ 0.12907 0.574903 0.790758 0.0
H_ H_ 0.266005 0.730791 0.904381 0.0
H_ H_ 0.214575 0.717272 0.858238 0.0
H_ H_ 0.0657575 0.680424 0.866415 0.0
H_ H_ 0.202131 0.593691 0.721357 0.0
H_ H_ 0.239038 0.647367 0.74896 0.0
H_ H_ 0.330297 0.585516 0.803229 0.0
H_ H_ 0.291334 0.532127 0.779338 0.0
H_ H_ 0.314107 0.918781 0.773111 0.0
H_ H_ 1.00161 0.876539 0.814259 0.0
H_ H_ 0.169174 0.93247 0.822631 0.0
H_ H_ 0.175196 0.743122 0.908566 0.0
H_ H_ 0.217974 0.783315 0.872396 0.0
H_ H_ 0.163397 0.871377 0.922762 0.0
H_ H_ 0.122875 0.825655 0.959674 0.0
H_ H_ 0.259413 0.974109 0.843925 0.0
H_ H_ 0.208225 0.958418 0.891685 0.0
H_ H_ 0.0569743 0.917681 0.879451 0.0
H_ H_ 0.235284 0.849265 0.536113 0.0
H_ H_ 0.246235 0.896985 1.00442 0.0
H_ H_ 0.313409 0.829703 0.93725 0.0
H_ H_ 0.288277 0.779401 0.96827 0.0
H_ H_ 0.0188918 0.833951 0.519983 0.0
H_ H_ 0.334934 0.879192 0.559689 0.0
H_ H_ 0.169849 0.819431 0.564424 0.0
H_ H_ 0.163425 0.511323 0.653143 0.0
H_ H_ 0.1195 0.96498 0.62171 0.0
H_ H_ 0.180938 0.878556 0.67157 0.0
H_ H_ 0.212048 0.920015 0.710113 0.0
H_ H_ 0.0680053 0.765441 0.596542 0.0
H_ H_ 0.120239 0.782225 0.643311 0.0
H_ H_ 0.268269 0.821523 0.631437 0.0
H_ H_ 0.117019 0.902372 0.782641 0.0
H_ H_ 0.0910126 0.850939 0.750152 0.0
H_ H_ 0.01987 0.919938 0.687462 0.0
H_ H_ 0.0521528 0.971147 0.718742 0.0
C_ C_ 0.107086 0.541801 0.727078 0.0
C_ C_ 0.0968146 0.572183 0.706716 0.0
C_ C_ 0.0473899 0.587779 0.707261 0.0
C_ C_ 0.0330963 0.612531 0.686148 0.0
C_ C_ 0.069025 0.619184 0.662449 0.0
C_ C_ 0.116329 0.602587 0.65992 0.0
C_ C_ 0.129262 0.578003 0.681536 0.0
C_ C_ 0.15276 0.62615 0.645247 0.0
C_ C_ 0.0766421 0.650854 0.646513 0.0
C_ C_ 0.167021 0.739093 0.593969 0.0
C_ C_ 0.150674 0.716021 0.617402 0.0
C_ C_ 0.1469 0.679391 0.613061 0.0
C_ C_ 0.16757 0.666638 0.58582 0.0
C_ C_ 0.187721 0.690854 0.563637 0.0
C_ C_ 0.300692 0.53695 0.666796 0.0
C_ C_ 0.33182 0.543744 0.638771 0.0
C_ C_ 0.0508052 0.532192 0.636317 0.0
C_ C_ 0.0806882 0.539618 0.609842 0.0
C_ C_ 0.0549902 0.557016 0.586258 0.0
C_ C_ 0.335611 0.567154 0.588784 0.0
C_ C_ 0.309757 0.564765 0.616598 0.0
C_ C_ 0.0807993 0.580392 0.565681 0.0
C_ C_ 0.332059 0.594049 0.567451 0.0
C_ C_ 0.101729 0.660145 0.992895 0.0
C_ C_ 0.0917176 0.630119 0.509219 0.0
C_ C_ 0.0597313 0.633934 0.534556 0.0
C_ C_ 0.041375 0.666828 0.540209 0.0
C_ C_ 0.0582909 0.696996 0.523365 0.0
C_ C_ 0.225356 0.712747 0.977782 0.0
C_ C_ 0.236993 0.682762 0.956833 0.0
C_ C_ 0.281925 0.662806 0.961026 0.0
C_ C_ 0.292933 0.634548 0.940836 0.0
C_ C_ 0.251375 0.620732 0.923114 0.0
C_ C_ 0.204553 0.638477 0.92083 0.0
C_ C_ 0.198582 0.671115 0.93586 0.0
C_ C_ 0.185926 0.63209 0.892509 0.0
C_ C_ 0.257001 0.60226 0.897114 0.0
C_ C_ 0.166167 0.519101 0.844938 0.0
C_ C_ 0.189553 0.545592 0.866162 0.0
C_ C_ 0.193741 0.581018 0.858171 0.0
C_ C_ 0.171273 0.590954 0.830652 0.0
C_ C_ 0.144259 0.565275 0.812376 0.0
C_ C_ 0.0359453 0.717106 0.914523 0.0
C_ C_ 0.00317355 0.706529 0.88849 0.0
C_ C_ 0.284259 0.718017 0.886191 0.0
C_ C_ 0.255387 0.711977 0.85923 0.0
C_ C_ 0.279392 0.692973 0.836203 0.0
C_ C_ 0.998146 0.684314 0.837209 0.0
C_ C_ 0.0257741 0.688456 0.864721 0.0
C_ C_ 0.255895 0.672454 0.812859 0.0
C_ C_ 0.00308331 0.656598 0.8177 0.0
C_ C_ 0.224851 0.592501 0.74253 0.0
C_ C_ 0.241612 0.622432 0.758836 0.0
C_ C_ 0.275794 0.620148 0.784162 0.0
C_ C_ 0.297638 0.586569 0.789361 0.0
C_ C_ 0.276869 0.557145 0.773915 0.0
C_ C_ 0.225571 0.957179 0.773109 0.0
C_ C_ 0.235076 0.926327 0.791149 0.0
C_ C_ 0.283338 0.909428 0.789372 0.0
C_ C_ 0.292248 0.881539 0.80883 0.0
C_ C_ 0.253158 0.86985 0.827948 0.0
C_ C_ 0.207335 0.886754 0.830748 0.0
C_ C_ 0.198687 0.916874 0.814448 0.0
C_ C_ 0.189316 0.878817 0.86064 0.0
C_ C_ 0.261153 0.853217 0.856351 0.0
C_ C_ 0.172086 0.770404 0.91153 0.0
C_ C_ 0.201716 0.795543 0.89212 0.0
C_ C_ 0.202837 0.830832 0.897405 0.0
C_ C_ 0.171836 0.842416 0.921521 0.0
C_ C_ 0.144507 0.817223 0.941191 0.0
C_ C_ 0.0334954 0.966666 0.834924 0.0
C_ C_ 1.000400401 0.954549 0.859912 0.0
C_ C_ 0.281045 0.964707 0.863645 0.0
C_ C_ 0.252392 0.958309 0.890557 0.0
C_ C_ 0.27836 0.94428 0.915011 0.0
C_ C_ 0.997211 0.932462 0.911404 0.0
C_ C_ 0.0250192 0.935298 0.88412 0.0
C_ C_ 0.252619 0.918945 0.935197 0.0
C_ C_ 0.00165594 0.904056 0.930857 0.0
C_ C_ 0.242854 0.845525 0.511773 0.0
C_ C_ 0.246678 0.871472 0.992237 0.0
C_ C_ 0.277535 0.868256 0.966534 0.0
C_ C_ 0.296067 0.834292 0.959713 0.0
C_ C_ 0.275973 0.805375 0.975726 0.0
C_ C_ 0.103053 0.791464 0.520338 0.0
C_ C_ 0.0980381 0.824534 0.538415 0.0
C_ C_ 0.0485364 0.841586 0.537264 0.0
C_ C_ 0.0377931 0.86691 0.56017 0.0
C_ C_ 0.0782595 0.8783 0.579536 0.0
C_ C_ 0.127862 0.86399 0.579657 0.0
C_ C_ 0.136978 0.835254 0.561786 0.0
C_ C_ 0.149351 0.871491 0.606962 0.0
C_ C_ 0.0722833 0.894661 0.607388 0.0
C_ C_ 0.159896 0.978803 0.662627 0.0
C_ C_ 0.133474 0.954549 0.642126 0.0
C_ C_ 0.137333 0.918002 0.647338 0.0
C_ C_ 0.171175 0.906485 0.671114 0.0
C_ C_ 0.19288 0.930325 0.690941 0.0
C_ C_ 0.304138 0.791639 0.580685 0.0
C_ C_ 0.331723 0.796212 0.609771 0.0
C_ C_ 0.0523292 0.784157 0.613634 0.0
C_ C_ 0.0773749 0.788113 0.641169 0.0
C_ C_ 0.0537459 0.807201 0.663504 0.0
C_ C_ 0.336239 0.817242 0.661162 0.0
C_ C_ 0.308181 0.812176 0.633675 0.0
C_ C_ 0.0799385 0.828653 0.685065 0.0
C_ C_ 0.331595 0.844515 0.681583 0.0
C_ C_ 0.100328 0.907422 0.760767 0.0
C_ C_ 0.0844051 0.87729 0.742582 0.0
C_ C_ 0.0585266 0.881998 0.715775 0.0
C_ C_ 0.0453604 0.916082 0.707125 0.0
C_ C_ 0.0641806 0.9456 0.724303 0.0
N_ N_ 0.184646 0.72623 0.567136 0.0
N_ N_ 0.127446 0.654859 0.635704 0.0
N_ N_ 0.0464965 0.603689 0.554648 0.0
N_ N_ 0.090253 0.693086 0.499061 0.0
N_ N_ 0.145043 0.530213 0.818769 0.0
N_ N_ 0.215335 0.607968 0.877987 0.0
N_ N_ 0.289694 0.64961 0.803139 0.0
N_ N_ 0.243505 0.560606 0.749546 0.0
N_ N_ 0.148729 0.782455 0.936901 0.0
N_ N_ 0.221558 0.856657 0.875315 0.0
N_ N_ 0.289176 0.897746 0.946983 0.0
N_ N_ 0.243708 0.808478 -0.000896285 0.0
N_ N_ 0.188361 0.966414 0.686478 0.0
N_ N_ 0.117462 0.891298 0.624281 0.0
N_ N_ 0.0451479 0.851639 0.696467 0.0
N_ N_ 0.0934097 0.941613 0.750289 0.0
O_ O_ 0.133969 0.51597 0.717943 0.0
O_ O_ 0.0795378 0.536938 0.750826 0.0
O_ O_ 0.0364502 0.664948 0.631885 0.0
O_ O_ 0.203438 0.62666 0.651884 0.0
O_ O_ 0.254811 0.546814 0.669958 0.0
O_ O_ 0.318198 0.518698 0.688759 0.0
O_ O_ 0.293072 0.614768 0.566095 0.0
O_ O_ 0.132411 0.583141 0.559939 0.0
O_ O_ 0.195097 0.736751 0.969106 0.0
O_ O_ 0.253058 0.715587 0.499317 0.0
O_ O_ 0.30361 0.595695 0.887096 0.0
O_ O_ 0.136425 0.636735 0.883656 0.0
O_ O_ 0.074276 0.698626 0.922723 0.0
O_ O_ 0.0234942 0.741936 0.931708 0.0
O_ O_ 0.0475371 0.647817 0.804406 0.0
O_ O_ 0.218308 0.684333 0.795672 0.0
O_ O_ 0.199645 0.982084 0.785242 0.0
O_ O_ 0.253029 0.964942 0.748924 0.0
O_ O_ 0.307748 0.844085 0.865463 0.0
O_ O_ 0.151888 0.896447 0.873345 0.0
O_ O_ 0.0722767 0.951645 0.827748 0.0
O_ O_ 0.023306 0.992673 0.818684 0.0
O_ O_ 0.04678 0.894485 0.940447 0.0
O_ O_ 0.210781 0.927684 0.951274 0.0
O_ O_ 0.128393 0.765843 0.529663 0.0
O_ O_ 0.0769717 0.784877 -0.00142534 0.0
O_ O_ 0.0253399 0.895292 0.621253 0.0
O_ O_ 0.201497 0.870063 0.613669 0.0
O_ O_ 0.258862 0.803165 0.577745 0.0
O_ O_ 0.317066 0.769178 0.561719 0.0
O_ O_ 0.299977 0.869619 0.676259 0.0
O_ O_ 0.122795 0.82146 0.699359 0.0
Cd Cd 0.560852 0.0119092 0.214073 0.0
Cd Cd 0.434272 0.236989 0.462986 0.0
Cd Cd 0.43213 0.488865 0.288024 0.0
Cd Cd 0.560381 0.261871 0.0374736 0.0
H_ H_ 0.360523 0.088725 0.235663 0.0
H_ H_ 0.674452 0.13418 0.195579 0.0
H_ H_ 0.493753 0.0691363 0.182133 0.0
H_ H_ 0.51986 0.266141 0.106519 0.0
H_ H_ 0.473654 0.225386 0.144467 0.0
H_ H_ 0.474734 0.140601 0.081031 0.0
H_ H_ 0.507888 0.183521 0.0421458 0.0
H_ H_ 0.39518 0.0051366 0.144324 0.0
H_ H_ 0.447975 0.0218559 0.0971079 0.0
H_ H_ 0.60089 0.0702208 0.115766 0.0
H_ H_ 0.42497 0.150432 0.463905 0.0
H_ H_ 0.416674 0.0933317 0.989451 0.0
H_ H_ 0.370751 0.163878 0.0605714 0.0
H_ H_ 0.381552 0.21523 0.0269839 0.0
H_ H_ 0.647367 0.170398 0.477588 0.0
H_ H_ 0.30999 0.0966452 0.459707 0.0
H_ H_ 0.494466 0.177457 0.435875 0.0
H_ H_ 0.501622 0.491244 0.345254 0.0
H_ H_ 0.535045 0.0362143 0.386855 0.0
H_ H_ 0.495316 0.119564 0.32845 0.0
H_ H_ 0.449538 0.0751525 0.295228 0.0
H_ H_ 0.598071 0.226566 0.407694 0.0
H_ H_ 0.542693 0.20767 0.362663 0.0
H_ H_ 0.40147 0.183137 0.367677 0.0
H_ H_ 0.563844 0.102919 0.214698 0.0
H_ H_ 0.577111 0.150256 0.250489 0.0
H_ H_ 0.652425 0.0791904 0.310325 0.0
H_ H_ 0.618272 0.0277453 0.278741 0.0
H_ H_ 0.648978 0.425971 0.277628 0.0
H_ H_ 0.313744 0.354937 0.287078 0.0
H_ H_ 0.493117 0.425774 0.318374 0.0
H_ H_ 0.480846 0.241154 0.394762 0.0
H_ H_ 0.534073 0.281905 0.361787 0.0
H_ H_ 0.505483 0.365592 0.424894 0.0
H_ H_ 0.464748 0.319122 0.456771 0.0
H_ H_ 0.594221 0.47739 0.343619 0.0
H_ H_ 0.543285 0.460858 0.389671 0.0
H_ H_ 0.391533 0.418313 0.382307 0.0
H_ H_ 0.54446 0.346091 0.0327033 0.0
H_ H_ 0.565427 0.400092 0.496629 0.0
H_ H_ 0.642891 0.328394 0.437047 0.0
H_ H_ 0.618483 0.279909 0.473828 0.0
H_ H_ 0.347973 0.328984 0.0244576 0.0
H_ H_ 0.66564 0.371235 0.0662126 0.0
H_ H_ 0.480645 0.303395 0.0759425 0.0
H_ H_ 0.50082 0.00804254 0.152288 0.0
H_ H_ 0.456298 0.46316 0.116815 0.0
H_ H_ 0.510564 0.377428 0.171461 0.0
H_ H_ 0.531637 0.423505 0.213162 0.0
H_ H_ 0.391279 0.260796 0.108709 0.0
H_ H_ 0.432634 0.276036 0.156496 0.0
H_ H_ 0.607041 0.329245 0.130842 0.0
H_ H_ 0.437524 0.405587 0.281967 0.0
H_ H_ 0.414958 0.356922 0.248963 0.0
H_ H_ 0.353244 0.432126 0.187253 0.0
H_ H_ 0.373543 0.47959 0.223646 0.0
C_ C_ 0.434834 0.0399765 0.228075 0.0
C_ C_ 0.425513 0.0726898 0.210378 0.0
C_ C_ 0.384026 0.0939027 0.21526 0.0
C_ C_ 0.370732 0.119998 0.195218 0.0
C_ C_ 0.396328 0.122447 0.166842 0.0
C_ C_ 0.437175 0.101138 0.160627 0.0
C_ C_ 0.456132 0.0785196 0.183522 0.0
C_ C_ 0.469189 0.119857 0.139859 0.0
C_ C_ 0.405334 0.153809 0.152827 0.0
C_ C_ 0.502674 0.240089 0.100383 0.0
C_ C_ 0.479453 0.215934 0.122586 0.0
C_ C_ 0.471688 0.17923 0.115392 0.0
C_ C_ 0.485579 0.167792 0.0870302 0.0
C_ C_ 0.50635 0.192147 0.0652606 0.0
C_ C_ 0.632403 0.0349597 0.16569 0.0
C_ C_ 0.663983 0.0440106 0.138746 0.0
C_ C_ 0.38111 0.0249613 0.128894 0.0
C_ C_ 0.40763 0.0298532 0.100631 0.0
C_ C_ 0.382388 0.0487251 0.0773512 0.0
C_ C_ 0.669403 0.0653747 0.0870017 0.0
C_ C_ 0.638218 0.0575038 0.112861 0.0
C_ C_ 0.408532 0.068125 0.0542434 0.0
C_ C_ 0.666292 0.096001 0.0700665 0.0
C_ C_ 0.414919 0.154681 0.486388 0.0
C_ C_ 0.409874 0.120635 -0.0031210000000000404 0.0
C_ C_ 0.391401 0.124829 0.0269297 0.0
C_ C_ 0.387234 0.160764 0.0380686 0.0
C_ C_ 0.391585 0.189189 0.0188757 0.0
C_ C_ 0.558414 0.206686 0.479535 0.0
C_ C_ 0.56913 0.176636 0.459596 0.0
C_ C_ 0.616971 0.159564 0.462099 0.0
C_ C_ 0.627807 0.132817 0.441301 0.0
C_ C_ 0.586686 0.11879 0.421948 0.0
C_ C_ 0.538512 0.133416 0.421543 0.0
C_ C_ 0.529006 0.162621 0.44007 0.0
C_ C_ 0.516795 0.126434 0.394253 0.0
C_ C_ 0.591349 0.102128 0.39343 0.0
C_ C_ 0.496377 0.0210142 0.344568 0.0
C_ C_ 0.518561 0.0453988 0.365333 0.0
C_ C_ 0.524641 0.0813026 0.356465 0.0
C_ C_ 0.502331 0.0917886 0.330019 0.0
C_ C_ 0.47445 0.0667061 0.311261 0.0
C_ C_ 0.36317 0.211988 0.416486 0.0
C_ C_ 0.33412 0.203997 0.388584 0.0
C_ C_ 0.616199 0.215888 0.388024 0.0
C_ C_ 0.585012 0.207564 0.361232 0.0
C_ C_ 0.61049 0.191887 0.336554 0.0
C_ C_ 0.334081 0.18439 0.337501 0.0
C_ C_ 0.361508 0.190235 0.363687 0.0
C_ C_ 0.584967 0.168479 0.317286 0.0
C_ C_ 0.342855 0.160089 0.314684 0.0
C_ C_ 0.574864 0.0970968 0.237738 0.0
C_ C_ 0.589548 0.125103 0.256633 0.0
C_ C_ 0.610041 0.11711 0.284526 0.0
C_ C_ 0.624877 0.0826322 0.291336 0.0
C_ C_ 0.607442 0.0548619 0.273145 0.0
C_ C_ 0.55726 0.458775 0.273906 0.0
C_ C_ 0.566407 0.426584 0.291826 0.0
C_ C_ 0.616769 0.41126 0.29026 0.0
C_ C_ 0.625614 0.380936 0.307853 0.0
C_ C_ 0.583484 0.364582 0.324696 0.0
C_ C_ 0.536918 0.380393 0.326347 0.0
C_ C_ 0.530439 0.413635 0.313454 0.0
C_ C_ 0.517401 0.371294 0.353872 0.0
C_ C_ 0.590312 0.348119 0.352554 0.0
C_ C_ 0.495675 0.266424 0.404083 0.0
C_ C_ 0.52352 0.289798 0.384699 0.0
C_ C_ 0.528235 0.325172 0.392173 0.0
C_ C_ 0.508583 0.336893 0.419036 0.0
C_ C_ 0.485836 0.312116 0.438627 0.0
C_ C_ 0.362082 0.46357 0.336413 0.0
C_ C_ 0.336068 0.455377 0.366689 0.0
C_ C_ 0.615192 0.465769 0.363322 0.0
C_ C_ 0.586357 0.460017 0.390737 0.0
C_ C_ 0.611081 0.442743 0.413677 0.0
C_ C_ 0.340878 0.435158 0.417333 0.0
C_ C_ 0.363136 0.438072 0.388992 0.0
C_ C_ 0.585873 0.420663 0.434006 0.0
C_ C_ 0.348097 0.406742 0.435754 0.0
C_ C_ 0.557913 0.341855 0.00886109 0.0
C_ C_ 0.580612 0.374216 0.491888 0.0
C_ C_ 0.607146 0.367956 0.46507 0.0
C_ C_ 0.61764 0.333602 0.456258 0.0
C_ C_ 0.602689 0.306202 0.476186 0.0
C_ C_ 0.433257 0.284547 0.0232194 0.0
C_ C_ 0.423021 0.315404 0.0436266 0.0
C_ C_ 0.381126 0.338789 0.0374203 0.0
C_ C_ 0.372184 0.36672 0.0579062 0.0
C_ C_ 0.415401 0.377342 0.0772379 0.0
C_ C_ 0.459567 0.35886 0.0801098 0.0
C_ C_ 0.460079 0.324668 0.0662938 0.0
C_ C_ 0.482317 0.367054 0.106679 0.0
C_ C_ 0.411498 0.395942 0.103478 0.0
C_ C_ 0.498172 0.479979 0.158302 0.0
C_ C_ 0.472411 0.454027 0.138126 0.0
C_ C_ 0.473852 0.415834 0.144048 0.0
C_ C_ 0.506003 0.406335 0.167616 0.0
C_ C_ 0.523188 0.431941 0.190066 0.0
C_ C_ 0.636428 0.29 0.0819948 0.0
C_ C_ 0.665024 0.294207 0.110423 0.0
C_ C_ 0.376978 0.282383 0.121276 0.0
C_ C_ 0.395071 0.286962 0.150674 0.0
C_ C_ 0.37054 0.309926 0.170235 0.0
C_ C_ 0.669811 0.316534 0.160643 0.0
C_ C_ 0.641907 0.312449 0.134225 0.0
C_ C_ 0.394861 0.330451 0.192315 0.0
C_ C_ 0.666703 0.346623 0.18054 0.0
C_ C_ 0.423182 0.411545 0.260908 0.0
C_ C_ 0.405742 0.384018 0.24339 0.0
C_ C_ 0.382653 0.38954 0.215232 0.0
C_ C_ 0.369341 0.424497 0.207808 0.0
C_ C_ 0.386884 0.452311 0.227055 0.0
N_ N_ 0.512561 0.227708 0.0713158 0.0
N_ N_ 0.450333 0.152975 0.136451 0.0
N_ N_ 0.376976 0.0951164 0.046325 0.0
N_ N_ 0.414024 0.185509 0.990982 0.0
N_ N_ 0.478223 0.0316368 0.317274 0.0
N_ N_ 0.5478 0.106658 0.377008 0.0
N_ N_ 0.621458 0.14722 0.305146 0.0
N_ N_ 0.582815 0.0619726 0.246723 0.0
N_ N_ 0.48015 0.277066 0.43125 0.0
N_ N_ 0.547952 0.351545 0.370341 0.0
N_ N_ 0.620496 0.396849 0.445446 0.0
N_ N_ 0.573748 0.312602 0.501724 0.0
N_ N_ 0.518759 0.468031 0.18565 0.0
N_ N_ 0.452378 0.390583 0.121832 0.0
N_ N_ 0.367921 0.360272 0.196812 0.0
N_ N_ 0.413718 0.445572 0.252271 0.0
O_ O_ 0.461026 0.0151538 0.216688 0.0
O_ O_ 0.41034 0.0343536 0.252691 0.0
O_ O_ 0.369864 0.177054 0.14752 0.0
O_ O_ 0.520165 0.115325 0.136448 0.0
O_ O_ 0.588319 0.0485361 0.169595 0.0
O_ O_ 0.645713 0.012515 0.184115 0.0
O_ O_ 0.622878 0.1102 0.0618196 0.0
O_ O_ 0.458494 0.0679194 0.0479517 0.0
O_ O_ 0.531179 0.231545 0.46784 0.0
O_ O_ 0.584647 0.209913 0.00617644 0.0
O_ O_ 0.637331 0.0976062 0.380758 0.0
O_ O_ 0.465061 0.129446 0.389571 0.0
O_ O_ 0.408355 0.199324 0.421032 0.0
O_ O_ 0.350534 0.236617 0.43347 0.0
O_ O_ 0.390112 0.153977 0.303087 0.0
O_ O_ 0.541124 0.176875 0.303251 0.0
O_ O_ 0.529888 0.482724 0.285307 0.0
O_ O_ 0.585834 0.465624 0.251286 0.0
O_ O_ 0.626187 0.32437 0.357645 0.0
O_ O_ 0.470075 0.377862 0.363001 0.0
O_ O_ 0.404679 0.448771 0.329559 0.0
O_ O_ 0.353246 0.492386 0.321006 0.0
O_ O_ 0.39584 0.400457 0.446144 0.0
O_ O_ 0.539013 0.424727 0.445891 0.0
O_ O_ 0.460009 0.259933 0.0318961 0.0
O_ O_ 0.407355 0.288018 0.493527 0.0
O_ O_ 0.366645 0.407186 0.113635 0.0
O_ O_ 0.533529 0.366469 0.110494 0.0
O_ O_ 0.593547 0.303733 0.077718 0.0
O_ O_ 0.642275 0.26303 0.0677623 0.0
O_ O_ 0.620832 0.358608 0.188276 0.0
O_ O_ 0.446085 0.328134 0.199758 0.0
Cd Cd 0.56554 0.0120436 0.714527 0.0
Cd Cd 0.435286 0.235165 0.963255 0.0
Cd Cd 0.434895 0.488684 0.784731 0.0
Cd Cd 0.560656 0.264293 0.535309 0.0
H_ H_ 0.432355 0.10558 0.751466 0.0
H_ H_ 0.665605 0.122692 0.685019 0.0
H_ H_ 0.476225 0.0581111 0.671526 0.0
H_ H_ 0.457682 0.245787 0.576512 0.0
H_ H_ 0.424575 0.205689 0.617596 0.0
H_ H_ 0.562494 0.145459 0.603455 0.0
H_ H_ 0.595031 0.191667 0.56552 0.0
H_ H_ 0.395821 0.0105617 0.648924 0.0
H_ H_ 0.442772 0.0284321 0.599277 0.0
H_ H_ 0.601049 0.0682102 0.616997 0.0
H_ H_ 0.434148 0.147472 0.957492 0.0
H_ H_ 0.401354 0.0985382 0.49607 0.0
H_ H_ 0.36853 0.170296 0.566311 0.0
H_ H_ 0.405752 0.22089 0.536755 0.0
H_ H_ 0.649587 0.165461 0.978359 0.0
H_ H_ 0.320693 0.114828 0.949962 0.0
H_ H_ 0.501769 0.182795 0.932465 0.0
H_ H_ 0.498399 0.491513 0.846649 0.0
H_ H_ 0.542693 0.0334942 0.884535 0.0
H_ H_ 0.496922 0.120595 0.829321 0.0
H_ H_ 0.462822 0.076246 0.792115 0.0
H_ H_ 0.598898 0.23457 0.902641 0.0
H_ H_ 0.545899 0.21479 0.860031 0.0
H_ H_ 0.390936 0.162168 0.868067 0.0
H_ H_ 0.544193 0.092558 0.720677 0.0
H_ H_ 0.565455 0.144056 0.749746 0.0
H_ H_ 0.646332 0.0785026 0.81239 0.0
H_ H_ 0.631785 0.0293945 0.77739 0.0
H_ H_ 0.649638 0.423924 0.776624 0.0
H_ H_ 0.192694 0.333644 0.770343 0.0
H_ H_ 0.496217 0.432987 0.814383 0.0
H_ H_ 0.499777 0.240962 0.902226 0.0
H_ H_ 0.544188 0.285386 0.864973 0.0
H_ H_ 0.499118 0.368188 0.927392 0.0
H_ H_ 0.457931 0.319211 0.959899 0.0
H_ H_ 0.594714 0.477952 0.845599 0.0
H_ H_ 0.549749 0.467288 0.892945 0.0
H_ H_ 0.392488 0.415632 0.873108 0.0
H_ H_ 0.548518 0.350459 0.532842 0.0
H_ H_ 0.567113 0.398756 1.00108 0.0
H_ H_ 0.644918 0.330026 0.94128 0.0
H_ H_ 0.613981 0.279179 0.97109 0.0
H_ H_ 0.433521 0.359707 0.491257 0.0
H_ H_ 0.66735 0.378272 0.560437 0.0
H_ H_ 0.455488 0.307697 0.57412 0.0
H_ H_ 0.495107 0.00843752 0.654491 0.0
H_ H_ 0.45995 0.465635 0.61524 0.0
H_ H_ 0.568213 0.39326 0.648372 0.0
H_ H_ 0.577341 0.425398 0.695018 0.0
H_ H_ 0.373061 0.248204 0.609725 0.0
H_ H_ 0.42057 0.26681 0.658482 0.0
H_ H_ 0.6116 0.330487 0.629742 0.0
H_ H_ 0.335717 0.435055 0.769443 0.0
H_ H_ 0.308148 0.387138 0.730789 0.0
H_ H_ 0.464579 0.399014 0.6923 0.0
H_ H_ 0.490332 0.444403 0.732196 0.0
C_ C_ 0.441711 0.042366 0.729333 0.0
C_ C_ 0.44255 0.0754542 0.712664 0.0
C_ C_ 0.430708 0.106083 0.728699 0.0
C_ C_ 0.423888 0.137408 0.711977 0.0
C_ C_ 0.428458 0.137231 0.681389 0.0
C_ C_ 0.441377 0.106339 0.665473 0.0
C_ C_ 0.452637 0.07623 0.682049 0.0
C_ C_ 0.469863 0.117748 0.640897 0.0
C_ C_ 0.452894 0.166475 0.664918 0.0
C_ C_ 0.481748 0.227405 0.58461 0.0
C_ C_ 0.462539 0.202344 0.605748 0.0
C_ C_ 0.493294 0.175164 0.614222 0.0
C_ C_ 0.542458 0.170853 0.600216 0.0
C_ C_ 0.559271 0.194215 0.577741 0.0
C_ C_ 0.635269 0.0338589 0.666723 0.0
C_ C_ 0.664994 0.0425868 0.639457 0.0
C_ C_ 0.378822 0.0294311 0.632997 0.0
C_ C_ 0.403889 0.03665 0.605103 0.0
C_ C_ 0.375456 0.0518079 0.58166 0.0
C_ C_ 0.6682 0.0653745 0.588551 0.0
C_ C_ 0.641823 0.0609984 0.615286 0.0
C_ C_ 0.399505 0.0737688 0.560006 0.0
C_ C_ 0.664387 0.0942601 0.56811 0.0
C_ C_ 0.425304 0.151527 0.980812 0.0
C_ C_ 0.398047 0.12533 0.504586 0.0
C_ C_ 0.387699 0.130499 0.535206 0.0
C_ C_ 0.385181 0.165423 0.545307 0.0
C_ C_ 0.401569 0.194139 0.527065 0.0
C_ C_ 0.560302 0.20598 0.980943 0.0
C_ C_ 0.5709 0.17719 0.959459 0.0
C_ C_ 0.619086 0.159329 0.960312 0.0
C_ C_ 0.628278 0.131761 0.940958 0.0
C_ C_ 0.58622 0.117318 0.923215 0.0
C_ C_ 0.54001 0.133336 0.921705 0.0
C_ C_ 0.533068 0.164883 0.938123 0.0
C_ C_ 0.518367 0.12776 0.893031 0.0
C_ C_ 0.589574 0.100106 0.895633 0.0
C_ C_ 0.501707 0.0199191 0.844013 0.0
C_ C_ 0.527106 0.0440877 0.864444 0.0
C_ C_ 0.52738 0.0804743 0.857755 0.0
C_ C_ 0.50263 0.0913883 0.83095 0.0
C_ C_ 0.487392 0.0667951 0.809551 0.0
C_ C_ 0.371443 0.210771 0.912939 0.0
C_ C_ 0.346075 0.2059 0.883267 0.0
C_ C_ 0.617699 0.219018 0.884999 0.0
C_ C_ 0.58773 0.209002 0.85987 0.0
C_ C_ 0.613132 0.191899 0.835228 0.0
C_ C_ 0.346042 0.185148 0.831912 0.0
C_ C_ 0.365102 0.183277 0.860835 0.0
C_ C_ 0.588509 0.170892 0.813364 0.0
C_ C_ 0.347891 0.157865 0.809562 0.0
C_ C_ 0.563687 0.0877087 0.740709 0.0
C_ C_ 0.5767 0.118278 0.758063 0.0
C_ C_ 0.605732 0.11495 0.785246 0.0
C_ C_ 0.624756 0.0819838 0.79174 0.0
C_ C_ 0.612781 0.0529012 0.772521 0.0
C_ C_ 0.562968 0.461864 0.773573 0.0
C_ C_ 0.570684 0.431883 0.792388 0.0
C_ C_ 0.618768 0.414846 0.792332 0.0
C_ C_ 0.626762 0.385126 0.810777 0.0
C_ C_ 0.582692 0.372258 0.828483 0.0
C_ C_ 0.534543 0.388963 0.828903 0.0
C_ C_ 0.530209 0.42013 0.812521 0.0
C_ C_ 0.508898 0.377577 0.855518 0.0
C_ C_ 0.58664 0.35423 0.85542 0.0
C_ C_ 0.498108 0.268761 0.904979 0.0
C_ C_ 0.521121 0.29352 0.884332 0.0
C_ C_ 0.523731 0.328815 0.893616 0.0
C_ C_ 0.502459 0.339084 0.921629 0.0
C_ C_ 0.476303 0.313166 0.939896 0.0
C_ C_ 0.364264 0.467795 0.833378 0.0
C_ C_ 0.343838 0.461456 0.863322 0.0
C_ C_ 0.614853 0.464855 0.863519 0.0
C_ C_ 0.588691 0.458478 0.890754 0.0
C_ C_ 0.613047 0.444288 0.914632 0.0
C_ C_ 0.342409 0.429585 0.910675 0.0
C_ C_ 0.365537 0.43597 0.88212 0.0
C_ C_ 0.588032 0.422465 0.935572 0.0
C_ C_ 0.344244 0.39772 0.926142 0.0
C_ C_ 0.56319 0.34637 0.510556 0.0
C_ C_ 0.574929 0.37237 0.992198 0.0
C_ C_ 0.602735 0.3685 0.965077 0.0
C_ C_ 0.621677 0.334469 0.960126 0.0
C_ C_ 0.598853 0.304574 0.975886 0.0
C_ C_ 0.438188 0.292958 0.515669 0.0
C_ C_ 0.442642 0.329596 0.530835 0.0
C_ C_ 0.438382 0.36118 0.514564 0.0
C_ C_ 0.443324 0.395376 0.529935 0.0
C_ C_ 0.458203 0.396584 0.56068 0.0
C_ C_ 0.458063 0.36546 0.577281 0.0
C_ C_ 0.454488 0.332069 0.561988 0.0
C_ C_ 0.492008 0.37242 0.60112 0.0
C_ C_ 0.492055 0.421506 0.574495 0.0
C_ C_ 0.506615 0.48146 0.654125 0.0
C_ C_ 0.492145 0.459541 0.630437 0.0
C_ C_ 0.517637 0.428648 0.626964 0.0
C_ C_ 0.548221 0.416273 0.650273 0.0
C_ C_ 0.554377 0.436175 0.676318 0.0
C_ C_ 0.63721 0.290709 0.582999 0.0
C_ C_ 0.667835 0.298181 0.609518 0.0
C_ C_ 0.372803 0.274589 0.618486 0.0
C_ C_ 0.401073 0.285664 0.644646 0.0
C_ C_ 0.395223 0.320556 0.655687 0.0
C_ C_ 0.671069 0.317616 0.660474 0.0
C_ C_ 0.644984 0.31571 0.633618 0.0
C_ C_ 0.396909 0.332218 0.68497 0.0
C_ C_ 0.665272 0.345735 0.681379 0.0
C_ C_ 0.361923 0.42888 0.750737 0.0
C_ C_ 0.347016 0.402431 0.729603 0.0
C_ C_ 0.385083 0.391759 0.70806 0.0
C_ C_ 0.436046 0.406679 0.70867 0.0
C_ C_ 0.449446 0.433321 0.730355 0.0
N_ N_ 0.527923 0.22144 0.569805 0.0
N_ N_ 0.480528 0.154146 0.641302 0.0
N_ N_ 0.371846 0.100496 0.553179 0.0
N_ N_ 0.415899 0.188878 0.497475 0.0
N_ N_ 0.482055 0.031906 0.817065 0.0
N_ N_ 0.549588 0.107092 0.87757 0.0
N_ N_ 0.622043 0.147923 0.802821 0.0
N_ N_ 0.577305 0.0549394 0.750178 0.0
N_ N_ 0.479493 0.279943 0.932438 0.0
N_ N_ 0.541368 0.355504 0.870914 0.0
N_ N_ 0.621786 0.398446 0.946317 0.0
N_ N_ 0.568485 0.307912 0.000396632 0.0
N_ N_ 0.534009 0.46947 0.678172 0.0
N_ N_ 0.511656 0.407196 0.600085 0.0
N_ N_ 0.369958 0.361734 0.688561 0.0
N_ N_ 0.412942 0.442824 0.75119 0.0
O_ O_ 0.470213 0.0178308 0.720391 0.0
O_ O_ 0.405571 0.0337687 0.749029 0.0
O_ O_ 0.466749 0.197513 0.677497 0.0
O_ O_ 0.502243 0.0987522 0.626577 0.0
O_ O_ 0.593784 0.0495351 0.673277 0.0
O_ O_ 0.647123 0.00857349 0.684375 0.0
O_ O_ 0.619048 0.102864 0.556483 0.0
O_ O_ 0.452085 0.0764042 0.556489 0.0
O_ O_ 0.533503 0.231608 0.971533 0.0
O_ O_ 0.586373 0.214956 0.502768 0.0
O_ O_ 0.63694 0.0950723 0.883885 0.0
O_ O_ 0.467725 0.126212 0.890058 0.0
O_ O_ 0.414006 0.197495 0.9184 0.0
O_ O_ 0.354314 0.233572 0.932347 0.0
O_ O_ 0.389458 0.141819 0.804035 0.0
O_ O_ 0.549079 0.182241 0.796637 0.0
O_ O_ 0.532617 0.486041 0.783012 0.0
O_ O_ 0.584841 0.464339 0.74881 0.0
O_ O_ 0.631901 0.346265 0.867596 0.0
O_ O_ 0.456484 0.370797 0.858374 0.0
O_ O_ 0.400717 0.44946 0.82295 0.0
O_ O_ 0.359531 0.498436 0.820944 0.0
O_ O_ 0.381054 0.375574 0.922575 0.0
O_ O_ 0.547827 0.432135 0.952236 0.0
O_ O_ 0.462426 0.267186 0.527024 0.0
O_ O_ 0.405886 0.280179 0.999739 0.0
O_ O_ 0.525167 0.44379 0.558069 0.0
O_ O_ 0.488088 0.352948 0.625659 0.0
O_ O_ 0.589597 0.301119 0.581124 0.0
O_ O_ 0.648851 0.269327 0.562482 0.0
O_ O_ 0.620549 0.348993 0.696269 0.0
O_ O_ 0.434467 0.323737 0.703779 0.0
Cd Cd 0.562431 0.511292 0.215588 0.0
Cd Cd 0.436171 0.737966 0.464852 0.0
Cd Cd 0.437869 0.98845 0.286165 0.0
Cd Cd 0.563817 0.762096 0.0351337 0.0
H_ H_ 0.348996 0.575408 0.222323 0.0
H_ H_ 0.666478 0.626042 0.18776 0.0
H_ H_ 0.499154 0.56447 0.179233 0.0
H_ H_ 0.499604 0.758774 0.0971644 0.0
H_ H_ 0.462808 0.714228 0.134511 0.0
H_ H_ 0.49312 0.630432 0.0726481 0.0
H_ H_ 0.538914 0.675255 0.039617 0.0
H_ H_ 0.400264 0.516692 0.152479 0.0
H_ H_ 0.454727 0.535845 0.109031 0.0
H_ H_ 0.603595 0.573984 0.118649 0.0
H_ H_ 0.444338 0.653071 0.466201 0.0
H_ H_ 0.423314 0.601098 0.999025 0.0
H_ H_ 0.355977 0.669789 0.0621883 0.0
H_ H_ 0.379569 0.72135 0.0288994 0.0
H_ H_ 0.644474 0.666119 0.479126 0.0
H_ H_ 0.324584 0.612904 0.448278 0.0
H_ H_ 0.49749 0.682268 0.432447 0.0
H_ H_ 0.494395 0.993379 0.349132 0.0
H_ H_ 0.53405 0.535712 0.384487 0.0
H_ H_ 0.497059 0.619924 0.32547 0.0
H_ H_ 0.464467 0.574727 0.287676 0.0
H_ H_ 0.598043 0.730891 0.404589 0.0
H_ H_ 0.54914 0.719639 0.3562 0.0
H_ H_ 0.397185 0.677348 0.3682 0.0
H_ H_ 0.560606 0.597051 0.215565 0.0
H_ H_ 0.577185 0.649181 0.248803 0.0
H_ H_ 0.639718 0.578876 0.314857 0.0
H_ H_ 0.60909 0.528077 0.283573 0.0
H_ H_ 0.652442 0.925089 0.279488 0.0
H_ H_ 0.293361 0.850739 0.282578 0.0
H_ H_ 0.508101 0.937368 0.324417 0.0
H_ H_ 0.507456 0.741622 0.404342 0.0
H_ H_ 0.544305 0.785459 0.367568 0.0
H_ H_ 0.504702 0.870586 0.426567 0.0
H_ H_ 0.459519 0.824922 0.460381 0.0
H_ H_ 0.597328 0.980283 0.345998 0.0
H_ H_ 0.542462 0.959676 0.389621 0.0
H_ H_ 0.389367 0.919075 0.378961 0.0
H_ H_ 0.554355 0.846397 0.0333069 0.0
H_ H_ 0.576362 0.899015 0.500948 0.0
H_ H_ 0.640421 0.829389 0.435662 0.0
H_ H_ 0.61371 0.777705 0.46832 0.0
H_ H_ 0.352081 0.830563 0.0226957 0.0
H_ H_ 0.666476 0.877849 0.0610323 0.0
H_ H_ 0.498892 0.815178 0.0702528 0.0
H_ H_ 0.500395 0.508413 0.152338 0.0
H_ H_ 0.455477 0.964791 0.117439 0.0
H_ H_ 0.499181 0.879969 0.175644 0.0
H_ H_ 0.53885 0.925225 0.2109 0.0
H_ H_ 0.402979 0.77026 0.0952161 0.0
H_ H_ 0.455113 0.786785 0.141306 0.0
H_ H_ 0.604364 0.824876 0.131063 0.0
H_ H_ 0.445366 0.903364 0.28328 0.0
H_ H_ 0.423131 0.850974 0.251095 0.0
H_ H_ 0.360554 0.920902 0.185192 0.0
H_ H_ 0.381605 0.971767 0.219611 0.0
C_ C_ 0.43868 0.539998 0.227052 0.0
C_ C_ 0.42932 0.570771 0.207483 0.0
C_ C_ 0.381853 0.588822 0.210019 0.0
C_ C_ 0.372918 0.617352 0.190542 0.0
C_ C_ 0.414437 0.63051 0.171853 0.0
C_ C_ 0.4608 0.613273 0.169669 0.0
C_ C_ 0.466734 0.581574 0.185219 0.0
C_ C_ 0.481436 0.620719 0.141473 0.0
C_ C_ 0.408884 0.648598 0.145016 0.0
C_ C_ 0.497609 0.730298 0.0920919 0.0
C_ C_ 0.472407 0.705623 0.111814 0.0
C_ C_ 0.471479 0.669032 0.105206 0.0
C_ C_ 0.49651 0.658066 0.0790275 0.0
C_ C_ 0.51981 0.683656 0.0593936 0.0
C_ C_ 0.634705 0.53623 0.167278 0.0
C_ C_ 0.665401 0.544726 0.139664 0.0
C_ C_ 0.384406 0.533773 0.136493 0.0
C_ C_ 0.413353 0.541779 0.110068 0.0
C_ C_ 0.387771 0.557109 0.0859562 0.0
C_ C_ 0.669945 0.568029 0.0889766 0.0
C_ C_ 0.642605 0.56379 0.116129 0.0
C_ C_ 0.413024 0.579403 0.0648629 0.0
C_ C_ 0.666112 0.596676 0.0696897 0.0
C_ C_ 0.430381 0.657225 0.489051 0.0
C_ C_ 0.416542 0.62753 0.00700845 0.0
C_ C_ 0.392127 0.632198 0.0347975 0.0
C_ C_ 0.380366 0.666644 0.0436273 0.0
C_ C_ 0.394123 0.695648 0.0247575 0.0
C_ C_ 0.56132 0.710002 0.477052 0.0
C_ C_ 0.57068 0.679229 0.457483 0.0
C_ C_ 0.618147 0.661178 0.460019 0.0
C_ C_ 0.627082 0.632648 0.440542 0.0
C_ C_ 0.585563 0.61949 0.421853 0.0
C_ C_ 0.5392 0.636727 0.419669 0.0
C_ C_ 0.533266 0.668426 0.435219 0.0
C_ C_ 0.518564 0.629281 0.391473 0.0
C_ C_ 0.591116 0.601402 0.395016 0.0
C_ C_ 0.502391 0.519702 0.342092 0.0
C_ C_ 0.527593 0.544377 0.361814 0.0
C_ C_ 0.528521 0.580968 0.355206 0.0
C_ C_ 0.50349 0.591934 0.329027 0.0
C_ C_ 0.48019 0.566344 0.309394 0.0
C_ C_ 0.365295 0.71377 0.417278 0.0
C_ C_ 0.334599 0.705274 0.389664 0.0
C_ C_ 0.615594 0.716227 0.386493 0.0
C_ C_ 0.586647 0.708221 0.360068 0.0
C_ C_ 0.612229 0.692891 0.335956 0.0
C_ C_ 0.330055 0.681971 0.338977 0.0
C_ C_ 0.357395 0.68621 0.366129 0.0
C_ C_ 0.586976 0.670597 0.314863 0.0
C_ C_ 0.333888 0.653324 0.31969 0.0
C_ C_ 0.569619 0.592775 0.239051 0.0
C_ C_ 0.583458 0.62247 0.257008 0.0
C_ C_ 0.607873 0.617802 0.284798 0.0
C_ C_ 0.619634 0.583356 0.293627 0.0
C_ C_ 0.605877 0.554352 0.274758 0.0
C_ C_ 0.56132 0.960002 0.272948 0.0
C_ C_ 0.57068 0.929229 0.292517 0.0
C_ C_ 0.618147 0.911178 0.289981 0.0
C_ C_ 0.627082 0.882648 0.309458 0.0
C_ C_ 0.585563 0.86949 0.328147 0.0
C_ C_ 0.5392 0.886727 0.330331 0.0
C_ C_ 0.533266 0.918426 0.314781 0.0
C_ C_ 0.518564 0.879281 0.358527 0.0
C_ C_ 0.591116 0.851402 0.354984 0.0
C_ C_ 0.502391 0.769702 0.407908 0.0
C_ C_ 0.527593 0.794377 0.388186 0.0
C_ C_ 0.528521 0.830968 0.394794 0.0
C_ C_ 0.50349 0.841934 0.420973 0.0
C_ C_ 0.48019 0.816344 0.440606 0.0
C_ C_ 0.365295 0.96377 0.332722 0.0
C_ C_ 0.334599 0.955274 0.360336 0.0
C_ C_ 0.615594 0.966227 0.363507 0.0
C_ C_ 0.586647 0.958221 0.389932 0.0
C_ C_ 0.612229 0.942891 0.414044 0.0
C_ C_ 0.330055 0.931971 0.411023 0.0
C_ C_ 0.357395 0.93621 0.383871 0.0
C_ C_ 0.586976 0.920597 0.435137 0.0
C_ C_ 0.333888 0.903324 0.43031 0.0
C_ C_ 0.569619 0.842775 0.010949 0.0
C_ C_ 0.583458 0.87247 0.492992 0.0
C_ C_ 0.607873 0.867802 0.465202 0.0
C_ C_ 0.619634 0.833356 0.456373 0.0
C_ C_ 0.605877 0.804352 0.475242 0.0
C_ C_ 0.43868 0.789998 0.0229477 0.0
C_ C_ 0.42932 0.820771 0.0425173 0.0
C_ C_ 0.381853 0.838822 0.0399812 0.0
C_ C_ 0.372918 0.867352 0.0594584 0.0
C_ C_ 0.414437 0.88051 0.0781469 0.0
C_ C_ 0.4608 0.863273 0.0803307 0.0
C_ C_ 0.466734 0.831574 0.0647812 0.0
C_ C_ 0.481436 0.870719 0.108527 0.0
C_ C_ 0.408884 0.898598 0.104984 0.0
C_ C_ 0.497609 0.980298 0.157908 0.0
C_ C_ 0.472407 0.955623 0.138186 0.0
C_ C_ 0.471479 0.919032 0.144794 0.0
C_ C_ 0.49651 0.908066 0.170973 0.0
C_ C_ 0.51981 0.933656 0.190606 0.0
C_ C_ 0.634705 0.78623 0.0827219 0.0
C_ C_ 0.665401 0.794726 0.110336 0.0
C_ C_ 0.384406 0.783773 0.113507 0.0
C_ C_ 0.413353 0.791779 0.139932 0.0
C_ C_ 0.387771 0.807109 0.164044 0.0
C_ C_ 0.669945 0.818029 0.161023 0.0
C_ C_ 0.642605 0.81379 0.133871 0.0
C_ C_ 0.413024 0.829403 0.185137 0.0
C_ C_ 0.666112 0.846676 0.18031 0.0
C_ C_ 0.430381 0.907225 0.260949 0.0
C_ C_ 0.416542 0.87753 0.242992 0.0
C_ C_ 0.392127 0.882198 0.215202 0.0
C_ C_ 0.380366 0.916644 0.206373 0.0
C_ C_ 0.394123 0.945648 0.225242 0.0
N_ N_ 0.519601 0.719087 0.066102 0.0
N_ N_ 0.450277 0.642872 0.126543 0.0
N_ N_ 0.378193 0.601806 0.0536496 0.0
N_ N_ 0.420902 0.690701 0.9986 0.0
N_ N_ 0.480399 0.530913 0.316102 0.0
N_ N_ 0.549723 0.607128 0.376543 0.0
N_ N_ 0.621807 0.648194 0.30365 0.0
N_ N_ 0.579098 0.559299 0.2486 0.0
N_ N_ 0.480399 0.780913 0.433898 0.0
N_ N_ 0.549723 0.857128 0.373457 0.0
N_ N_ 0.621807 0.898194 0.44635 0.0
N_ N_ 0.579098 0.809299 0.5014 0.0
N_ N_ 0.519601 0.969087 0.183898 0.0
N_ N_ 0.450277 0.892872 0.123457 0.0
N_ N_ 0.378193 0.851806 0.19635 0.0
N_ N_ 0.420902 0.940701 0.2514 0.0
O_ O_ 0.465517 0.514997 0.217173 0.0
O_ O_ 0.410651 0.534476 0.250578 0.0
O_ O_ 0.362123 0.655721 0.134274 0.0
O_ O_ 0.532653 0.620132 0.13586 0.0
O_ O_ 0.59232 0.551058 0.172831 0.0
O_ O_ 0.645557 0.510599 0.184197 0.0
O_ O_ 0.620206 0.605994 0.059287 0.0
O_ O_ 0.454156 0.569983 0.0492879 0.0
O_ O_ 0.534483 0.735003 0.467173 0.0
O_ O_ 0.589349 0.715524 0.000578323 0.0
O_ O_ 0.637877 0.594279 0.384274 0.0
O_ O_ 0.467347 0.629868 0.38586 0.0
O_ O_ 0.40768 0.698942 0.422831 0.0
O_ O_ 0.354443 0.739401 0.434197 0.0
O_ O_ 0.379794 0.644007 0.309287 0.0
O_ O_ 0.545844 0.680017 0.299288 0.0
O_ O_ 0.534483 0.985003 0.282827 0.0
O_ O_ 0.589349 0.965524 0.249422 0.0
O_ O_ 0.637877 0.844279 0.365726 0.0
O_ O_ 0.467347 0.879868 0.36414 0.0
O_ O_ 0.40768 0.948942 0.327169 0.0
O_ O_ 0.354443 0.989401 0.315803 0.0
O_ O_ 0.379794 0.894007 0.440713 0.0
O_ O_ 0.545844 0.930017 0.450712 0.0
O_ O_ 0.465517 0.764997 0.032827 0.0
O_ O_ 0.410651 0.784476 0.499422 0.0
O_ O_ 0.362123 0.905721 0.115726 0.0
O_ O_ 0.532653 0.870132 0.11414 0.0
O_ O_ 0.59232 0.801058 0.0771694 0.0
O_ O_ 0.645557 0.760599 0.0658027 0.0
O_ O_ 0.620206 0.855994 0.190713 0.0
O_ O_ 0.454156 0.819983 0.200712 0.0
Cd Cd 0.563502 0.511719 0.71467 0.0
Cd Cd 0.436498 0.738281 0.96467 0.0
Cd Cd 0.436498 0.988281 0.78533 0.0
Cd Cd 0.563502 0.761719 0.53533 0.0
H_ H_ 0.351294 0.579745 0.725897 0.0
H_ H_ 0.668104 0.629013 0.690298 0.0
H_ H_ 0.498892 0.565178 0.679747 0.0
H_ H_ 0.500395 0.758413 0.597662 0.0
H_ H_ 0.455477 0.714791 0.632561 0.0
H_ H_ 0.499181 0.629969 0.574356 0.0
H_ H_ 0.53885 0.675225 0.5391 0.0
H_ H_ 0.402979 0.52026 0.654784 0.0
H_ H_ 0.455113 0.536785 0.608694 0.0
H_ H_ 0.604364 0.574876 0.618937 0.0
H_ H_ 0.445366 0.653364 0.96672 0.0
H_ H_ 0.423131 0.600974 0.498905 0.0
H_ H_ 0.360554 0.670902 0.564808 0.0
H_ H_ 0.381605 0.721767 0.530389 0.0
H_ H_ 0.648706 0.670255 0.975897 0.0
H_ H_ 0.331896 0.620987 0.940298 0.0
H_ H_ 0.501108 0.684822 0.929747 0.0
H_ H_ 0.499605 0.991587 0.847662 0.0
H_ H_ 0.544523 0.535209 0.882561 0.0
H_ H_ 0.500819 0.620031 0.824356 0.0
H_ H_ 0.46115 0.574775 0.7891 0.0
H_ H_ 0.597021 0.72974 0.904784 0.0
H_ H_ 0.544887 0.713215 0.858694 0.0
H_ H_ 0.395636 0.675124 0.868937 0.0
H_ H_ 0.554634 0.596636 0.71672 0.0
H_ H_ 0.576869 0.649026 0.748905 0.0
H_ H_ 0.639446 0.579098 0.814808 0.0
H_ H_ 0.618395 0.528233 0.780389 0.0
H_ H_ 0.648706 0.920255 0.774103 0.0
H_ H_ 0.331896 0.870987 0.809702 0.0
H_ H_ 0.501108 0.934822 0.820253 0.0
H_ H_ 0.499605 0.741587 0.902338 0.0
H_ H_ 0.544523 0.785209 0.867439 0.0
H_ H_ 0.500819 0.870031 0.925644 0.0
H_ H_ 0.46115 0.824775 0.9609 0.0
H_ H_ 0.597021 0.97974 0.845216 0.0
H_ H_ 0.544887 0.963215 0.891306 0.0
H_ H_ 0.395636 0.925124 0.881063 0.0
H_ H_ 0.554634 0.846636 0.53328 0.0
H_ H_ 0.576869 0.899026 0.00109454 0.0
H_ H_ 0.639446 0.829098 0.935192 0.0
H_ H_ 0.618395 0.778233 0.969611 0.0
H_ H_ 0.351294 0.829745 0.524103 0.0
H_ H_ 0.668104 0.879013 0.559702 0.0
H_ H_ 0.498892 0.815178 0.570253 0.0
H_ H_ 0.500395 0.508413 0.652338 0.0
H_ H_ 0.455477 0.964791 0.617439 0.0
H_ H_ 0.499181 0.879969 0.675644 0.0
H_ H_ 0.53885 0.925225 0.7109 0.0
H_ H_ 0.402979 0.77026 0.595216 0.0
H_ H_ 0.455113 0.786785 0.641306 0.0
H_ H_ 0.604364 0.824876 0.631063 0.0
H_ H_ 0.445366 0.903364 0.78328 0.0
H_ H_ 0.423131 0.850974 0.751095 0.0
H_ H_ 0.360554 0.920902 0.685192 0.0
H_ H_ 0.381605 0.971767 0.719611 0.0
C_ C_ 0.43868 0.539998 0.727052 0.0
C_ C_ 0.42932 0.570771 0.707483 0.0
C_ C_ 0.381853 0.588822 0.710019 0.0
C_ C_ 0.372918 0.617352 0.690542 0.0
C_ C_ 0.414437 0.63051 0.671853 0.0
C_ C_ 0.4608 0.613273 0.669669 0.0
C_ C_ 0.466734 0.581574 0.685219 0.0
C_ C_ 0.481436 0.620719 0.641473 0.0
C_ C_ 0.408884 0.648598 0.645016 0.0
C_ C_ 0.497609 0.730298 0.592092 0.0
C_ C_ 0.472407 0.705623 0.611814 0.0
C_ C_ 0.471479 0.669032 0.605206 0.0
C_ C_ 0.49651 0.658066 0.579027 0.0
C_ C_ 0.51981 0.683656 0.559394 0.0
C_ C_ 0.634705 0.53623 0.667278 0.0
C_ C_ 0.665401 0.544726 0.639664 0.0
C_ C_ 0.384406 0.533773 0.636493 0.0
C_ C_ 0.413353 0.541779 0.610068 0.0
C_ C_ 0.387771 0.557109 0.585956 0.0
C_ C_ 0.669945 0.568029 0.588977 0.0
C_ C_ 0.642605 0.56379 0.616129 0.0
C_ C_ 0.413024 0.579403 0.564863 0.0
C_ C_ 0.666112 0.596676 0.56969 0.0
C_ C_ 0.430381 0.657225 0.989051 0.0
C_ C_ 0.416542 0.62753 0.507008 0.0
C_ C_ 0.392127 0.632198 0.534798 0.0
C_ C_ 0.380366 0.666644 0.543627 0.0
C_ C_ 0.394123 0.695648 0.524758 0.0
C_ C_ 0.56132 0.710002 0.977052 0.0
C_ C_ 0.57068 0.679229 0.957483 0.0
C_ C_ 0.618147 0.661178 0.960019 0.0
C_ C_ 0.627082 0.632648 0.940542 0.0
C_ C_ 0.585563 0.61949 0.921853 0.0
C_ C_ 0.5392 0.636727 0.919669 0.0
C_ C_ 0.533266 0.668426 0.935219 0.0
C_ C_ 0.518564 0.629281 0.891473 0.0
C_ C_ 0.591116 0.601402 0.895016 0.0
C_ C_ 0.502391 0.519702 0.842092 0.0
C_ C_ 0.527593 0.544377 0.861814 0.0
C_ C_ 0.528521 0.580968 0.855206 0.0
C_ C_ 0.50349 0.591934 0.829027 0.0
C_ C_ 0.48019 0.566344 0.809394 0.0
C_ C_ 0.365295 0.71377 0.917278 0.0
C_ C_ 0.334599 0.705274 0.889664 0.0
C_ C_ 0.615594 0.716227 0.886493 0.0
C_ C_ 0.586647 0.708221 0.860068 0.0
C_ C_ 0.612229 0.692891 0.835956 0.0
C_ C_ 0.330055 0.681971 0.838977 0.0
C_ C_ 0.357395 0.68621 0.866129 0.0
C_ C_ 0.586976 0.670597 0.814863 0.0
C_ C_ 0.333888 0.653324 0.81969 0.0
C_ C_ 0.569619 0.592775 0.739051 0.0
C_ C_ 0.583458 0.62247 0.757008 0.0
C_ C_ 0.607873 0.617802 0.784798 0.0
C_ C_ 0.619634 0.583356 0.793627 0.0
C_ C_ 0.605877 0.554352 0.774758 0.0
C_ C_ 0.56132 0.960002 0.772948 0.0
C_ C_ 0.57068 0.929229 0.792517 0.0
C_ C_ 0.618147 0.911178 0.789981 0.0
C_ C_ 0.627082 0.882648 0.809458 0.0
C_ C_ 0.585563 0.86949 0.828147 0.0
C_ C_ 0.5392 0.886727 0.830331 0.0
C_ C_ 0.533266 0.918426 0.814781 0.0
C_ C_ 0.518564 0.879281 0.858527 0.0
C_ C_ 0.591116 0.851402 0.854984 0.0
C_ C_ 0.502391 0.769702 0.907908 0.0
C_ C_ 0.527593 0.794377 0.888186 0.0
C_ C_ 0.528521 0.830968 0.894794 0.0
C_ C_ 0.50349 0.841934 0.920973 0.0
C_ C_ 0.48019 0.816344 0.940606 0.0
C_ C_ 0.365295 0.96377 0.832722 0.0
C_ C_ 0.334599 0.955274 0.860336 0.0
C_ C_ 0.615594 0.966227 0.863507 0.0
C_ C_ 0.586647 0.958221 0.889932 0.0
C_ C_ 0.612229 0.942891 0.914044 0.0
C_ C_ 0.330055 0.931971 0.911023 0.0
C_ C_ 0.357395 0.93621 0.883871 0.0
C_ C_ 0.586976 0.920597 0.935137 0.0
C_ C_ 0.333888 0.903324 0.93031 0.0
C_ C_ 0.569619 0.842775 0.510949 0.0
C_ C_ 0.583458 0.87247 0.992992 0.0
C_ C_ 0.607873 0.867802 0.965202 0.0
C_ C_ 0.619634 0.833356 0.956373 0.0
C_ C_ 0.605877 0.804352 0.975242 0.0
C_ C_ 0.43868 0.789998 0.522948 0.0
C_ C_ 0.42932 0.820771 0.542517 0.0
C_ C_ 0.381853 0.838822 0.539981 0.0
C_ C_ 0.372918 0.867352 0.559458 0.0
C_ C_ 0.414437 0.88051 0.578147 0.0
C_ C_ 0.4608 0.863273 0.580331 0.0
C_ C_ 0.466734 0.831574 0.564781 0.0
C_ C_ 0.481436 0.870719 0.608527 0.0
C_ C_ 0.408884 0.898598 0.604984 0.0
C_ C_ 0.497609 0.980298 0.657908 0.0
C_ C_ 0.472407 0.955623 0.638186 0.0
C_ C_ 0.471479 0.919032 0.644794 0.0
C_ C_ 0.49651 0.908066 0.670973 0.0
C_ C_ 0.51981 0.933656 0.690606 0.0
C_ C_ 0.634705 0.78623 0.582722 0.0
C_ C_ 0.665401 0.794726 0.610336 0.0
C_ C_ 0.384406 0.783773 0.613507 0.0
C_ C_ 0.413353 0.791779 0.639932 0.0
C_ C_ 0.387771 0.807109 0.664044 0.0
C_ C_ 0.669945 0.818029 0.661023 0.0
C_ C_ 0.642605 0.81379 0.633871 0.0
C_ C_ 0.413024 0.829403 0.685137 0.0
C_ C_ 0.666112 0.846676 0.68031 0.0
C_ C_ 0.430381 0.907225 0.760949 0.0
C_ C_ 0.416542 0.87753 0.742992 0.0
C_ C_ 0.392127 0.882198 0.715202 0.0
C_ C_ 0.380366 0.916644 0.706373 0.0
C_ C_ 0.394123 0.945648 0.725242 0.0
N_ N_ 0.519601 0.719087 0.566102 0.0
N_ N_ 0.450277 0.642872 0.626543 0.0
N_ N_ 0.378193 0.601806 0.55365 0.0
N_ N_ 0.420902 0.690701 0.4986 0.0
N_ N_ 0.480399 0.530913 0.816102 0.0
N_ N_ 0.549723 0.607128 0.876543 0.0
N_ N_ 0.621807 0.648194 0.80365 0.0
N_ N_ 0.579098 0.559299 0.7486 0.0
N_ N_ 0.480399 0.780913 0.933898 0.0
N_ N_ 0.549723 0.857128 0.873457 0.0
N_ N_ 0.621807 0.898194 0.94635 0.0
N_ N_ 0.579098 0.809299 0.00139979 0.0
N_ N_ 0.519601 0.969087 0.683898 0.0
N_ N_ 0.450277 0.892872 0.623457 0.0
N_ N_ 0.378193 0.851806 0.69635 0.0
N_ N_ 0.420902 0.940701 0.7514 0.0
O_ O_ 0.465517 0.514997 0.717173 0.0
O_ O_ 0.410651 0.534476 0.750578 0.0
O_ O_ 0.362123 0.655721 0.634274 0.0
O_ O_ 0.532653 0.620132 0.63586 0.0
O_ O_ 0.59232 0.551058 0.672831 0.0
O_ O_ 0.645557 0.510599 0.684197 0.0
O_ O_ 0.620206 0.605994 0.559287 0.0
O_ O_ 0.454156 0.569983 0.549288 0.0
O_ O_ 0.534483 0.735003 0.967173 0.0
O_ O_ 0.589349 0.715524 0.500578 0.0
O_ O_ 0.637877 0.594279 0.884274 0.0
O_ O_ 0.467347 0.629868 0.88586 0.0
O_ O_ 0.40768 0.698942 0.922831 0.0
O_ O_ 0.354443 0.739401 0.934197 0.0
O_ O_ 0.379794 0.644007 0.809287 0.0
O_ O_ 0.545844 0.680017 0.799288 0.0
O_ O_ 0.534483 0.985003 0.782827 0.0
O_ O_ 0.589349 0.965524 0.749422 0.0
O_ O_ 0.637877 0.844279 0.865726 0.0
O_ O_ 0.467347 0.879868 0.86414 0.0
O_ O_ 0.40768 0.948942 0.827169 0.0
O_ O_ 0.354443 0.989401 0.815803 0.0
O_ O_ 0.379794 0.894007 0.940713 0.0
O_ O_ 0.545844 0.930017 0.950712 0.0
O_ O_ 0.465517 0.764997 0.532827 0.0
O_ O_ 0.410651 0.784476 0.999422 0.0
O_ O_ 0.362123 0.905721 0.615726 0.0
O_ O_ 0.532653 0.870132 0.61414 0.0
O_ O_ 0.59232 0.801058 0.577169 0.0
O_ O_ 0.645557 0.760599 0.565803 0.0
O_ O_ 0.620206 0.855994 0.690713 0.0
O_ O_ 0.454156 0.819983 0.700712 0.0
Cd Cd 0.896835 0.0117191 0.21467 0.0
Cd Cd 0.769832 0.238281 0.46467 0.0
Cd Cd 0.769832 0.488281 0.28533 0.0
Cd Cd 0.896835 0.261719 0.0353296 0.0
H_ H_ 0.684627 0.0797452 0.225897 0.0
H_ H_ 0.00143726 0.129013 0.190298 0.0
H_ H_ 0.832225 0.0651784 0.179747 0.0
H_ H_ 0.833728 0.258413 0.0976618 0.0
H_ H_ 0.78881 0.214791 0.132561 0.0
H_ H_ 0.832514 0.129969 0.0743557 0.0
H_ H_ 0.872183 0.175225 0.0391002 0.0
H_ H_ 0.736312 0.0202596 0.154784 0.0
H_ H_ 0.788447 0.0367846 0.108694 0.0
H_ H_ 0.937697 0.0748764 0.118937 0.0
H_ H_ 0.778699 0.153364 0.46672 0.0
H_ H_ 0.756465 0.100974 0.998905 0.0
H_ H_ 0.693888 0.170902 0.0648075 0.0
H_ H_ 0.714938 0.221767 0.0303887 0.0
H_ H_ 0.98204 0.170255 0.475897 0.0
H_ H_ 0.665229 0.120987 0.440298 0.0
H_ H_ 0.834442 0.184822 0.429747 0.0
H_ H_ 0.832939 0.491587 0.347662 0.0
H_ H_ 0.877857 0.035209 0.382561 0.0
H_ H_ 0.834153 0.120031 0.324356 0.0
H_ H_ 0.794483 0.0747749 0.2891 0.0
H_ H_ 0.930355 0.22974 0.404784 0.0
H_ H_ 0.87822 0.213215 0.358694 0.0
H_ H_ 0.728969 0.175124 0.368937 0.0
H_ H_ 0.887968 0.0966362 0.21672 0.0
H_ H_ 0.910202 0.149026 0.248905 0.0
H_ H_ 0.972779 0.0790981 0.314808 0.0
H_ H_ 0.951728 0.0282328 0.280389 0.0
H_ H_ 0.98204 0.420255 0.274103 0.0
H_ H_ 0.665229 0.370987 0.309702 0.0
H_ H_ 0.834442 0.434822 0.320253 0.0
H_ H_ 0.832939 0.241587 0.402338 0.0
H_ H_ 0.877857 0.285209 0.367439 0.0
H_ H_ 0.834153 0.370031 0.425644 0.0
H_ H_ 0.794483 0.324775 0.4609 0.0
H_ H_ 0.930355 0.47974 0.345216 0.0
H_ H_ 0.87822 0.463215 0.391306 0.0
H_ H_ 0.728969 0.425124 0.381063 0.0
H_ H_ 0.887968 0.346636 0.0332805 0.0
H_ H_ 0.910202 0.399026 0.501095 0.0
H_ H_ 0.972779 0.329098 0.435192 0.0
H_ H_ 0.951728 0.278233 0.469611 0.0
H_ H_ 0.684627 0.329745 0.0241033 0.0
H_ H_ 0.00143727 0.379013 0.0597022 0.0
H_ H_ 0.832225 0.315178 0.0702528 0.0
H_ H_ 0.833728 0.00841344 0.152338 0.0
H_ H_ 0.78881 0.464791 0.117439 0.0
H_ H_ 0.832514 0.379969 0.175644 0.0
H_ H_ 0.872183 0.425225 0.2109 0.0
H_ H_ 0.736312 0.27026 0.0952161 0.0
H_ H_ 0.788447 0.286785 0.141306 0.0
H_ H_ 0.937697 0.324876 0.131063 0.0
H_ H_ 0.778699 0.403364 0.28328 0.0
H_ H_ 0.756465 0.350974 0.251095 0.0
H_ H_ 0.693888 0.420902 0.185192 0.0
H_ H_ 0.714938 0.471767 0.219611 0.0
C_ C_ 0.772014 0.0399984 0.227052 0.0
C_ C_ 0.762653 0.0707715 0.207483 0.0
C_ C_ 0.715187 0.0888219 0.210019 0.0
C_ C_ 0.706251 0.117352 0.190542 0.0
C_ C_ 0.747771 0.13051 0.171853 0.0
C_ C_ 0.794133 0.113273 0.169669 0.0
C_ C_ 0.800068 0.0815736 0.185219 0.0
C_ C_ 0.814769 0.120719 0.141473 0.0
C_ C_ 0.742217 0.148598 0.145016 0.0
C_ C_ 0.830943 0.230298 0.0920919 0.0
C_ C_ 0.80574 0.205623 0.111814 0.0
C_ C_ 0.804812 0.169032 0.105206 0.0
C_ C_ 0.829843 0.158066 0.0790275 0.0
C_ C_ 0.853144 0.183656 0.0593936 0.0
C_ C_ 0.968039 0.0362297 0.167278 0.0
C_ C_ 0.998734 0.0447258 0.139664 0.0
C_ C_ 0.717739 0.0337728 0.136493 0.0
C_ C_ 0.746686 0.0417792 0.110068 0.0
C_ C_ 0.721104 0.0571085 0.0859562 0.0
C_ C_ 0.00327862 0.0680289 0.0889766 0.0
C_ C_ 0.975938 0.0637899 0.116129 0.0
C_ C_ 0.746357 0.0794027 0.0648629 0.0
C_ C_ 0.999445 0.0966762 0.0696897 0.0
C_ C_ 0.763715 0.157225 0.489051 0.0
C_ C_ 0.749875 0.12753 0.00700845 0.0
C_ C_ 0.725461 0.132198 0.0347975 0.0
C_ C_ 0.713699 0.166644 0.0436273 0.0
C_ C_ 0.727456 0.195648 0.0247575 0.0
C_ C_ 0.894653 0.210002 0.477052 0.0
C_ C_ 0.904014 0.179229 0.457483 0.0
C_ C_ 0.95148 0.161178 0.460019 0.0
C_ C_ 0.960415 0.132648 0.440542 0.0
C_ C_ 0.918896 0.11949 0.421853 0.0
C_ C_ 0.872534 0.136727 0.419669 0.0
C_ C_ 0.866599 0.168426 0.435219 0.0
C_ C_ 0.851898 0.129281 0.391473 0.0
C_ C_ 0.924449 0.101402 0.395016 0.0
C_ C_ 0.835724 0.0197024 0.342092 0.0
C_ C_ 0.860926 0.044377 0.361814 0.0
C_ C_ 0.861855 0.0809681 0.355206 0.0
C_ C_ 0.836823 0.0919345 0.329027 0.0
C_ C_ 0.813523 0.0663441 0.309394 0.0
C_ C_ 0.698628 0.21377 0.417278 0.0
C_ C_ 0.667933 0.205274 0.389664 0.0
C_ C_ 0.948927 0.216227 0.386493 0.0
C_ C_ 0.91998 0.208221 0.360068 0.0
C_ C_ 0.945562 0.192891 0.335956 0.0
C_ C_ 0.663388 0.181971 0.338977 0.0
C_ C_ 0.690729 0.18621 0.366129 0.0
C_ C_ 0.92031 0.170597 0.314863 0.0
C_ C_ 0.667221 0.153324 0.31969 0.0
C_ C_ 0.902952 0.0927748 0.239051 0.0
C_ C_ 0.916792 0.12247 0.257008 0.0
C_ C_ 0.941206 0.117802 0.284798 0.0
C_ C_ 0.952968 0.0833558 0.293627 0.0
C_ C_ 0.93921 0.0543523 0.274758 0.0
C_ C_ 0.894653 0.460002 0.272948 0.0
C_ C_ 0.904014 0.429229 0.292517 0.0
C_ C_ 0.95148 0.411178 0.289981 0.0
C_ C_ 0.960415 0.382648 0.309458 0.0
C_ C_ 0.918896 0.36949 0.328147 0.0
C_ C_ 0.872534 0.386727 0.330331 0.0
C_ C_ 0.866599 0.418426 0.314781 0.0
C_ C_ 0.851898 0.379281 0.358527 0.0
C_ C_ 0.924449 0.351402 0.354984 0.0
C_ C_ 0.835724 0.269702 0.407908 0.0
C_ C_ 0.860926 0.294377 0.388186 0.0
C_ C_ 0.861855 0.330968 0.394794 0.0
C_ C_ 0.836823 0.341934 0.420973 0.0
C_ C_ 0.813523 0.316344 0.440606 0.0
C_ C_ 0.698628 0.46377 0.332722 0.0
C_ C_ 0.667933 0.455274 0.360336 0.0
C_ C_ 0.948927 0.466227 0.363507 0.0
C_ C_ 0.91998 0.458221 0.389932 0.0
C_ C_ 0.945562 0.442891 0.414044 0.0
C_ C_ 0.663388 0.431971 0.411023 0.0
C_ C_ 0.690729 0.43621 0.383871 0.0
C_ C_ 0.92031 0.420597 0.435137 0.0
C_ C_ 0.667221 0.403324 0.43031 0.0
C_ C_ 0.902952 0.342775 0.010949 0.0
C_ C_ 0.916792 0.37247 0.492992 0.0
C_ C_ 0.941206 0.367802 0.465202 0.0
C_ C_ 0.952968 0.333356 0.456373 0.0
C_ C_ 0.93921 0.304352 0.475242 0.0
C_ C_ 0.772014 0.289998 0.0229477 0.0
C_ C_ 0.762653 0.320771 0.0425173 0.0
C_ C_ 0.715187 0.338822 0.0399812 0.0
C_ C_ 0.706251 0.367352 0.0594584 0.0
C_ C_ 0.747771 0.38051 0.0781469 0.0
C_ C_ 0.794133 0.363273 0.0803307 0.0
C_ C_ 0.800068 0.331574 0.0647813 0.0
C_ C_ 0.814769 0.370719 0.108527 0.0
C_ C_ 0.742217 0.398598 0.104984 0.0
C_ C_ 0.830943 0.480298 0.157908 0.0
C_ C_ 0.80574 0.455623 0.138186 0.0
C_ C_ 0.804812 0.419032 0.144794 0.0
C_ C_ 0.829843 0.408066 0.170973 0.0
C_ C_ 0.853144 0.433656 0.190606 0.0
C_ C_ 0.968039 0.28623 0.0827219 0.0
C_ C_ 0.998734 0.294726 0.110336 0.0
C_ C_ 0.717739 0.283773 0.113507 0.0
C_ C_ 0.746686 0.291779 0.139932 0.0
C_ C_ 0.721104 0.307109 0.164044 0.0
C_ C_ 0.00327863 0.318029 0.161023 0.0
C_ C_ 0.975938 0.31379 0.133871 0.0
C_ C_ 0.746357 0.329403 0.185137 0.0
C_ C_ 0.999445 0.346676 0.18031 0.0
C_ C_ 0.763715 0.407225 0.260949 0.0
C_ C_ 0.749875 0.37753 0.242992 0.0
C_ C_ 0.725461 0.382198 0.215202 0.0
C_ C_ 0.713699 0.416644 0.206373 0.0
C_ C_ 0.727456 0.445648 0.225242 0.0
N_ N_ 0.852935 0.219087 0.066102 0.0
N_ N_ 0.783611 0.142872 0.126543 0.0
N_ N_ 0.711527 0.101806 0.0536496 0.0
N_ N_ 0.754235 0.190701 0.9986 0.0
N_ N_ 0.813732 0.030913 0.316102 0.0
N_ N_ 0.883056 0.107128 0.376543 0.0
N_ N_ 0.95514 0.148194 0.30365 0.0
N_ N_ 0.912431 0.0592986 0.2486 0.0
N_ N_ 0.813732 0.280913 0.433898 0.0
N_ N_ 0.883056 0.357128 0.373457 0.0
N_ N_ 0.95514 0.398194 0.44635 0.0
N_ N_ 0.912431 0.309299 0.5014 0.0
N_ N_ 0.852935 0.469087 0.183898 0.0
N_ N_ 0.783611 0.392872 0.123457 0.0
N_ N_ 0.711527 0.351806 0.19635 0.0
N_ N_ 0.754235 0.440701 0.2514 0.0
O_ O_ 0.79885 0.0149975 0.217173 0.0
O_ O_ 0.743984 0.0344756 0.250578 0.0
O_ O_ 0.695457 0.155721 0.134274 0.0
O_ O_ 0.865986 0.120132 0.13586 0.0
O_ O_ 0.925653 0.0510577 0.172831 0.0
O_ O_ 0.978891 0.0105991 0.184197 0.0
O_ O_ 0.95354 0.105994 0.059287 0.0
O_ O_ 0.78749 0.0699826 0.0492879 0.0
O_ O_ 0.867816 0.235003 0.467173 0.0
O_ O_ 0.922682 0.215524 0.000578323 0.0
O_ O_ 0.97121 0.094279 0.384274 0.0
O_ O_ 0.80068 0.129868 0.38586 0.0
O_ O_ 0.741013 0.198942 0.422831 0.0
O_ O_ 0.687776 0.239401 0.434197 0.0
O_ O_ 0.713127 0.144006 0.309287 0.0
O_ O_ 0.879177 0.180017 0.299288 0.0
O_ O_ 0.867816 0.485003 0.282827 0.0
O_ O_ 0.922682 0.465524 0.249422 0.0
O_ O_ 0.97121 0.344279 0.365726 0.0
O_ O_ 0.80068 0.379868 0.36414 0.0
O_ O_ 0.741013 0.448942 0.327169 0.0
O_ O_ 0.687776 0.489401 0.315803 0.0
O_ O_ 0.713127 0.394006 0.440713 0.0
O_ O_ 0.879177 0.430017 0.450712 0.0
O_ O_ 0.79885 0.264997 0.032827 0.0
O_ O_ 0.743984 0.284476 0.499422 0.0
O_ O_ 0.695457 0.405721 0.115726 0.0
O_ O_ 0.865986 0.370132 0.11414 0.0
O_ O_ 0.925653 0.301058 0.0771694 0.0
O_ O_ 0.978891 0.260599 0.0658027 0.0
O_ O_ 0.95354 0.355994 0.190713 0.0
O_ O_ 0.78749 0.319983 0.200712 0.0
Cd Cd 0.896835 0.0117191 0.71467 0.0
Cd Cd 0.769832 0.238281 0.96467 0.0
Cd Cd 0.769832 0.488281 0.78533 0.0
Cd Cd 0.896835 0.261719 0.53533 0.0
H_ H_ 0.684627 0.0797452 0.725897 0.0
H_ H_ 0.00143726 0.129013 0.690298 0.0
H_ H_ 0.832225 0.0651784 0.679747 0.0
H_ H_ 0.833728 0.258413 0.597662 0.0
H_ H_ 0.78881 0.214791 0.632561 0.0
H_ H_ 0.832514 0.129969 0.574356 0.0
H_ H_ 0.872183 0.175225 0.5391 0.0
H_ H_ 0.736312 0.0202596 0.654784 0.0
H_ H_ 0.788447 0.0367846 0.608694 0.0
H_ H_ 0.937697 0.0748764 0.618937 0.0
H_ H_ 0.778699 0.153364 0.96672 0.0
H_ H_ 0.756465 0.100974 0.498905 0.0
H_ H_ 0.693888 0.170902 0.564808 0.0
H_ H_ 0.714938 0.221767 0.530389 0.0
H_ H_ 0.98204 0.170255 0.975897 0.0
H_ H_ 0.665229 0.120987 0.940298 0.0
H_ H_ 0.834442 0.184822 0.929747 0.0
H_ H_ 0.832939 0.491587 0.847662 0.0
H_ H_ 0.877857 0.035209 0.882561 0.0
H_ H_ 0.834153 0.120031 0.824356 0.0
H_ H_ 0.794483 0.0747749 0.7891 0.0
H_ H_ 0.930355 0.22974 0.904784 0.0
H_ H_ 0.87822 0.213215 0.858694 0.0
H_ H_ 0.728969 0.175124 0.868937 0.0
H_ H_ 0.887968 0.0966362 0.71672 0.0
H_ H_ 0.910202 0.149026 0.748905 0.0
H_ H_ 0.972779 0.0790981 0.814808 0.0
H_ H_ 0.951728 0.0282328 0.780389 0.0
H_ H_ 0.98204 0.420255 0.774103 0.0
H_ H_ 0.665229 0.370987 0.809702 0.0
H_ H_ 0.834442 0.434822 0.820253 0.0
H_ H_ 0.832939 0.241587 0.902338 0.0
H_ H_ 0.877857 0.285209 0.867439 0.0
H_ H_ 0.834153 0.370031 0.925644 0.0
H_ H_ 0.794483 0.324775 0.9609 0.0
H_ H_ 0.930355 0.47974 0.845216 0.0
H_ H_ 0.87822 0.463215 0.891306 0.0
H_ H_ 0.728969 0.425124 0.881063 0.0
H_ H_ 0.887968 0.346636 0.53328 0.0
H_ H_ 0.910202 0.399026 0.00109454 0.0
H_ H_ 0.972779 0.329098 0.935192 0.0
H_ H_ 0.951728 0.278233 0.969611 0.0
H_ H_ 0.684627 0.329745 0.524103 0.0
H_ H_ 0.00143727 0.379013 0.559702 0.0
H_ H_ 0.832225 0.315178 0.570253 0.0
H_ H_ 0.833728 0.00841344 0.652338 0.0
H_ H_ 0.78881 0.464791 0.617439 0.0
H_ H_ 0.832514 0.379969 0.675644 0.0
H_ H_ 0.872183 0.425225 0.7109 0.0
H_ H_ 0.736312 0.27026 0.595216 0.0
H_ H_ 0.788447 0.286785 0.641306 0.0
H_ H_ 0.937697 0.324876 0.631063 0.0
H_ H_ 0.778699 0.403364 0.78328 0.0
H_ H_ 0.756465 0.350974 0.751095 0.0
H_ H_ 0.693888 0.420902 0.685192 0.0
H_ H_ 0.714938 0.471767 0.719611 0.0
C_ C_ 0.772014 0.0399984 0.727052 0.0
C_ C_ 0.762653 0.0707715 0.707483 0.0
C_ C_ 0.715187 0.0888219 0.710019 0.0
C_ C_ 0.706251 0.117352 0.690542 0.0
C_ C_ 0.747771 0.13051 0.671853 0.0
C_ C_ 0.794133 0.113273 0.669669 0.0
C_ C_ 0.800068 0.0815736 0.685219 0.0
C_ C_ 0.814769 0.120719 0.641473 0.0
C_ C_ 0.742217 0.148598 0.645016 0.0
C_ C_ 0.830943 0.230298 0.592092 0.0
C_ C_ 0.80574 0.205623 0.611814 0.0
C_ C_ 0.804812 0.169032 0.605206 0.0
C_ C_ 0.829843 0.158066 0.579027 0.0
C_ C_ 0.853144 0.183656 0.559394 0.0
C_ C_ 0.968039 0.0362297 0.667278 0.0
C_ C_ 0.998734 0.0447258 0.639664 0.0
C_ C_ 0.717739 0.0337728 0.636493 0.0
C_ C_ 0.746686 0.0417792 0.610068 0.0
C_ C_ 0.721104 0.0571085 0.585956 0.0
C_ C_ 0.00327862 0.0680289 0.588977 0.0
C_ C_ 0.975938 0.0637899 0.616129 0.0
C_ C_ 0.746357 0.0794027 0.564863 0.0
C_ C_ 0.999445 0.0966762 0.56969 0.0
C_ C_ 0.763715 0.157225 0.989051 0.0
C_ C_ 0.749875 0.12753 0.507008 0.0
C_ C_ 0.725461 0.132198 0.534798 0.0
C_ C_ 0.713699 0.166644 0.543627 0.0
C_ C_ 0.727456 0.195648 0.524758 0.0
C_ C_ 0.894653 0.210002 0.977052 0.0
C_ C_ 0.904014 0.179229 0.957483 0.0
C_ C_ 0.95148 0.161178 0.960019 0.0
C_ C_ 0.960415 0.132648 0.940542 0.0
C_ C_ 0.918896 0.11949 0.921853 0.0
C_ C_ 0.872534 0.136727 0.919669 0.0
C_ C_ 0.866599 0.168426 0.935219 0.0
C_ C_ 0.851898 0.129281 0.891473 0.0
C_ C_ 0.924449 0.101402 0.895016 0.0
C_ C_ 0.835724 0.0197024 0.842092 0.0
C_ C_ 0.860926 0.044377 0.861814 0.0
C_ C_ 0.861855 0.0809681 0.855206 0.0
C_ C_ 0.836823 0.0919345 0.829027 0.0
C_ C_ 0.813523 0.0663441 0.809394 0.0
C_ C_ 0.698628 0.21377 0.917278 0.0
C_ C_ 0.667933 0.205274 0.889664 0.0
C_ C_ 0.948927 0.216227 0.886493 0.0
C_ C_ 0.91998 0.208221 0.860068 0.0
C_ C_ 0.945562 0.192891 0.835956 0.0
C_ C_ 0.663388 0.181971 0.838977 0.0
C_ C_ 0.690729 0.18621 0.866129 0.0
C_ C_ 0.92031 0.170597 0.814863 0.0
C_ C_ 0.667221 0.153324 0.81969 0.0
C_ C_ 0.902952 0.0927748 0.739051 0.0
C_ C_ 0.916792 0.12247 0.757008 0.0
C_ C_ 0.941206 0.117802 0.784798 0.0
C_ C_ 0.952968 0.0833558 0.793627 0.0
C_ C_ 0.93921 0.0543523 0.774758 0.0
C_ C_ 0.894653 0.460002 0.772948 0.0
C_ C_ 0.904014 0.429229 0.792517 0.0
C_ C_ 0.95148 0.411178 0.789981 0.0
C_ C_ 0.960415 0.382648 0.809458 0.0
C_ C_ 0.918896 0.36949 0.828147 0.0
C_ C_ 0.872534 0.386727 0.830331 0.0
C_ C_ 0.866599 0.418426 0.814781 0.0
C_ C_ 0.851898 0.379281 0.858527 0.0
C_ C_ 0.924449 0.351402 0.854984 0.0
C_ C_ 0.835724 0.269702 0.907908 0.0
C_ C_ 0.860926 0.294377 0.888186 0.0
C_ C_ 0.861855 0.330968 0.894794 0.0
C_ C_ 0.836823 0.341934 0.920973 0.0
C_ C_ 0.813523 0.316344 0.940606 0.0
C_ C_ 0.698628 0.46377 0.832722 0.0
C_ C_ 0.667933 0.455274 0.860336 0.0
C_ C_ 0.948927 0.466227 0.863507 0.0
C_ C_ 0.91998 0.458221 0.889932 0.0
C_ C_ 0.945562 0.442891 0.914044 0.0
C_ C_ 0.663388 0.431971 0.911023 0.0
C_ C_ 0.690729 0.43621 0.883871 0.0
C_ C_ 0.92031 0.420597 0.935137 0.0
C_ C_ 0.667221 0.403324 0.93031 0.0
C_ C_ 0.902952 0.342775 0.510949 0.0
C_ C_ 0.916792 0.37247 0.992992 0.0
C_ C_ 0.941206 0.367802 0.965202 0.0
C_ C_ 0.952968 0.333356 0.956373 0.0
C_ C_ 0.93921 0.304352 0.975242 0.0
C_ C_ 0.772014 0.289998 0.522948 0.0
C_ C_ 0.762653 0.320771 0.542517 0.0
C_ C_ 0.715187 0.338822 0.539981 0.0
C_ C_ 0.706251 0.367352 0.559458 0.0
C_ C_ 0.747771 0.38051 0.578147 0.0
C_ C_ 0.794133 0.363273 0.580331 0.0
C_ C_ 0.800068 0.331574 0.564781 0.0
C_ C_ 0.814769 0.370719 0.608527 0.0
C_ C_ 0.742217 0.398598 0.604984 0.0
C_ C_ 0.830943 0.480298 0.657908 0.0
C_ C_ 0.80574 0.455623 0.638186 0.0
C_ C_ 0.804812 0.419032 0.644794 0.0
C_ C_ 0.829843 0.408066 0.670973 0.0
C_ C_ 0.853144 0.433656 0.690606 0.0
C_ C_ 0.968039 0.28623 0.582722 0.0
C_ C_ 0.998734 0.294726 0.610336 0.0
C_ C_ 0.717739 0.283773 0.613507 0.0
C_ C_ 0.746686 0.291779 0.639932 0.0
C_ C_ 0.721104 0.307109 0.664044 0.0
C_ C_ 0.00327863 0.318029 0.661023 0.0
C_ C_ 0.975938 0.31379 0.633871 0.0
C_ C_ 0.746357 0.329403 0.685137 0.0
C_ C_ 0.999445 0.346676 0.68031 0.0
C_ C_ 0.763715 0.407225 0.760949 0.0
C_ C_ 0.749875 0.37753 0.742992 0.0
C_ C_ 0.725461 0.382198 0.715202 0.0
C_ C_ 0.713699 0.416644 0.706373 0.0
C_ C_ 0.727456 0.445648 0.725242 0.0
N_ N_ 0.852935 0.219087 0.566102 0.0
N_ N_ 0.783611 0.142872 0.626543 0.0
N_ N_ 0.711527 0.101806 0.55365 0.0
N_ N_ 0.754235 0.190701 0.4986 0.0
N_ N_ 0.813732 0.030913 0.816102 0.0
N_ N_ 0.883056 0.107128 0.876543 0.0
N_ N_ 0.95514 0.148194 0.80365 0.0
N_ N_ 0.912431 0.0592986 0.7486 0.0
N_ N_ 0.813732 0.280913 0.933898 0.0
N_ N_ 0.883056 0.357128 0.873457 0.0
N_ N_ 0.95514 0.398194 0.94635 0.0
N_ N_ 0.912431 0.309299 0.00139979 0.0
N_ N_ 0.852935 0.469087 0.683898 0.0
N_ N_ 0.783611 0.392872 0.623457 0.0
N_ N_ 0.711527 0.351806 0.69635 0.0
N_ N_ 0.754235 0.440701 0.7514 0.0
O_ O_ 0.79885 0.0149975 0.717173 0.0
O_ O_ 0.743984 0.0344756 0.750578 0.0
O_ O_ 0.695457 0.155721 0.634274 0.0
O_ O_ 0.865986 0.120132 0.63586 0.0
O_ O_ 0.925653 0.0510577 0.672831 0.0
O_ O_ 0.978891 0.0105991 0.684197 0.0
O_ O_ 0.95354 0.105994 0.559287 0.0
O_ O_ 0.78749 0.0699826 0.549288 0.0
O_ O_ 0.867816 0.235003 0.967173 0.0
O_ O_ 0.922682 0.215524 0.500578 0.0
O_ O_ 0.97121 0.094279 0.884274 0.0
O_ O_ 0.80068 0.129868 0.88586 0.0
O_ O_ 0.741013 0.198942 0.922831 0.0
O_ O_ 0.687776 0.239401 0.934197 0.0
O_ O_ 0.713127 0.144006 0.809287 0.0
O_ O_ 0.879177 0.180017 0.799288 0.0
O_ O_ 0.867816 0.485003 0.782827 0.0
O_ O_ 0.922682 0.465524 0.749422 0.0
O_ O_ 0.97121 0.344279 0.865726 0.0
O_ O_ 0.80068 0.379868 0.86414 0.0
O_ O_ 0.741013 0.448942 0.827169 0.0
O_ O_ 0.687776 0.489401 0.815803 0.0
O_ O_ 0.713127 0.394006 0.940713 0.0
O_ O_ 0.879177 0.430017 0.950712 0.0
O_ O_ 0.79885 0.264997 0.532827 0.0
O_ O_ 0.743984 0.284476 0.999422 0.0
O_ O_ 0.695457 0.405721 0.615726 0.0
O_ O_ 0.865986 0.370132 0.61414 0.0
O_ O_ 0.925653 0.301058 0.577169 0.0
O_ O_ 0.978891 0.260599 0.565803 0.0
O_ O_ 0.95354 0.355994 0.690713 0.0
O_ O_ 0.78749 0.319983 0.700712 0.0
Cd Cd 0.896835 0.511719 0.21467 0.0
Cd Cd 0.769832 0.738281 0.46467 0.0
Cd Cd 0.769832 0.988281 0.28533 0.0
Cd Cd 0.896835 0.761719 0.0353296 0.0
H_ H_ 0.684627 0.579745 0.225897 0.0
H_ H_ 0.00143727 0.629013 0.190298 0.0
H_ H_ 0.832225 0.565178 0.179747 0.0
H_ H_ 0.833728 0.758413 0.0976618 0.0
H_ H_ 0.78881 0.714791 0.132561 0.0
H_ H_ 0.832514 0.629969 0.0743557 0.0
H_ H_ 0.872183 0.675225 0.0391002 0.0
H_ H_ 0.736312 0.52026 0.154784 0.0
H_ H_ 0.788447 0.536785 0.108694 0.0
H_ H_ 0.937697 0.574876 0.118937 0.0
H_ H_ 0.778699 0.653364 0.46672 0.0
H_ H_ 0.756465 0.600974 0.998905 0.0
H_ H_ 0.693888 0.670902 0.0648075 0.0
H_ H_ 0.714938 0.721767 0.0303887 0.0
H_ H_ 0.98204 0.670255 0.475897 0.0
H_ H_ 0.665229 0.620987 0.440298 0.0
H_ H_ 0.834442 0.684822 0.429747 0.0
H_ H_ 0.832939 0.991587 0.347662 0.0
H_ H_ 0.877857 0.535209 0.382561 0.0
H_ H_ 0.834153 0.620031 0.324356 0.0
H_ H_ 0.794483 0.574775 0.2891 0.0
H_ H_ 0.930355 0.72974 0.404784 0.0
H_ H_ 0.87822 0.713215 0.358694 0.0
H_ H_ 0.728969 0.675124 0.368937 0.0
H_ H_ 0.887968 0.596636 0.21672 0.0
H_ H_ 0.910202 0.649026 0.248905 0.0
H_ H_ 0.972779 0.579098 0.314808 0.0
H_ H_ 0.951728 0.528233 0.280389 0.0
H_ H_ 0.98204 0.920255 0.274103 0.0
H_ H_ 0.665229 0.870987 0.309702 0.0
H_ H_ 0.834442 0.934822 0.320253 0.0
H_ H_ 0.832939 0.741587 0.402338 0.0
H_ H_ 0.877857 0.785209 0.367439 0.0
H_ H_ 0.834153 0.870031 0.425644 0.0
H_ H_ 0.794483 0.824775 0.4609 0.0
H_ H_ 0.930355 0.97974 0.345216 0.0
H_ H_ 0.87822 0.963215 0.391306 0.0
H_ H_ 0.728969 0.925124 0.381063 0.0
H_ H_ 0.887968 0.846636 0.0332805 0.0
H_ H_ 0.910202 0.899026 0.501095 0.0
H_ H_ 0.972779 0.829098 0.435192 0.0
H_ H_ 0.951728 0.778233 0.469611 0.0
H_ H_ 0.684627 0.829745 0.0241033 0.0
H_ H_ 0.00143726 0.879013 0.0597022 0.0
H_ H_ 0.832225 0.815178 0.0702528 0.0
H_ H_ 0.833728 0.508413 0.152338 0.0
H_ H_ 0.78881 0.964791 0.117439 0.0
H_ H_ 0.832514 0.879969 0.175644 0.0
H_ H_ 0.872183 0.925225 0.2109 0.0
H_ H_ 0.736312 0.77026 0.0952161 0.0
H_ H_ 0.788447 0.786785 0.141306 0.0
H_ H_ 0.937697 0.824876 0.131063 0.0
H_ H_ 0.778699 0.903364 0.28328 0.0
H_ H_ 0.756465 0.850974 0.251095 0.0
H_ H_ 0.693888 0.920902 0.185192 0.0
H_ H_ 0.714938 0.971767 0.219611 0.0
C_ C_ 0.772014 0.539998 0.227052 0.0
C_ C_ 0.762653 0.570771 0.207483 0.0
C_ C_ 0.715187 0.588822 0.210019 0.0
C_ C_ 0.706251 0.617352 0.190542 0.0
C_ C_ 0.747771 0.63051 0.171853 0.0
C_ C_ 0.794133 0.613273 0.169669 0.0
C_ C_ 0.800068 0.581574 0.185219 0.0
C_ C_ 0.814769 0.620719 0.141473 0.0
C_ C_ 0.742217 0.648598 0.145016 0.0
C_ C_ 0.830943 0.730298 0.0920919 0.0
C_ C_ 0.80574 0.705623 0.111814 0.0
C_ C_ 0.804812 0.669032 0.105206 0.0
C_ C_ 0.829843 0.658066 0.0790275 0.0
C_ C_ 0.853144 0.683656 0.0593936 0.0
C_ C_ 0.968039 0.53623 0.167278 0.0
C_ C_ 0.998734 0.544726 0.139664 0.0
C_ C_ 0.717739 0.533773 0.136493 0.0
C_ C_ 0.746686 0.541779 0.110068 0.0
C_ C_ 0.721104 0.557109 0.0859562 0.0
C_ C_ 0.00327863 0.568029 0.0889766 0.0
C_ C_ 0.975938 0.56379 0.116129 0.0
C_ C_ 0.746357 0.579403 0.0648629 0.0
C_ C_ 0.999445 0.596676 0.0696897 0.0
C_ C_ 0.763715 0.657225 0.489051 0.0
C_ C_ 0.749875 0.62753 0.00700845 0.0
C_ C_ 0.725461 0.632198 0.0347975 0.0
C_ C_ 0.713699 0.666644 0.0436273 0.0
C_ C_ 0.727456 0.695648 0.0247575 0.0
C_ C_ 0.894653 0.710002 0.477052 0.0
C_ C_ 0.904014 0.679229 0.457483 0.0
C_ C_ 0.95148 0.661178 0.460019 0.0
C_ C_ 0.960415 0.632648 0.440542 0.0
C_ C_ 0.918896 0.61949 0.421853 0.0
C_ C_ 0.872534 0.636727 0.419669 0.0
C_ C_ 0.866599 0.668426 0.435219 0.0
C_ C_ 0.851898 0.629281 0.391473 0.0
C_ C_ 0.924449 0.601402 0.395016 0.0
C_ C_ 0.835724 0.519702 0.342092 0.0
C_ C_ 0.860926 0.544377 0.361814 0.0
C_ C_ 0.861855 0.580968 0.355206 0.0
C_ C_ 0.836823 0.591934 0.329027 0.0
C_ C_ 0.813523 0.566344 0.309394 0.0
C_ C_ 0.698628 0.71377 0.417278 0.0
C_ C_ 0.667933 0.705274 0.389664 0.0
C_ C_ 0.948927 0.716227 0.386493 0.0
C_ C_ 0.91998 0.708221 0.360068 0.0
C_ C_ 0.945562 0.692891 0.335956 0.0
C_ C_ 0.663388 0.681971 0.338977 0.0
C_ C_ 0.690729 0.68621 0.366129 0.0
C_ C_ 0.92031 0.670597 0.314863 0.0
C_ C_ 0.667221 0.653324 0.31969 0.0
C_ C_ 0.902952 0.592775 0.239051 0.0
C_ C_ 0.916792 0.62247 0.257008 0.0
C_ C_ 0.941206 0.617802 0.284798 0.0
C_ C_ 0.952968 0.583356 0.293627 0.0
C_ C_ 0.93921 0.554352 0.274758 0.0
C_ C_ 0.894653 0.960002 0.272948 0.0
C_ C_ 0.904014 0.929229 0.292517 0.0
C_ C_ 0.95148 0.911178 0.289981 0.0
C_ C_ 0.960415 0.882648 0.309458 0.0
C_ C_ 0.918896 0.86949 0.328147 0.0
C_ C_ 0.872534 0.886727 0.330331 0.0
C_ C_ 0.866599 0.918426 0.314781 0.0
C_ C_ 0.851898 0.879281 0.358527 0.0
C_ C_ 0.924449 0.851402 0.354984 0.0
C_ C_ 0.835724 0.769702 0.407908 0.0
C_ C_ 0.860926 0.794377 0.388186 0.0
C_ C_ 0.861855 0.830968 0.394794 0.0
C_ C_ 0.836823 0.841934 0.420973 0.0
C_ C_ 0.813523 0.816344 0.440606 0.0
C_ C_ 0.698628 0.96377 0.332722 0.0
C_ C_ 0.667933 0.955274 0.360336 0.0
C_ C_ 0.948927 0.966227 0.363507 0.0
C_ C_ 0.91998 0.958221 0.389932 0.0
C_ C_ 0.945562 0.942891 0.414044 0.0
C_ C_ 0.663388 0.931971 0.411023 0.0
C_ C_ 0.690729 0.93621 0.383871 0.0
C_ C_ 0.92031 0.920597 0.435137 0.0
C_ C_ 0.667221 0.903324 0.43031 0.0
C_ C_ 0.902952 0.842775 0.010949 0.0
C_ C_ 0.916792 0.87247 0.492992 0.0
C_ C_ 0.941206 0.867802 0.465202 0.0
C_ C_ 0.952968 0.833356 0.456373 0.0
C_ C_ 0.93921 0.804352 0.475242 0.0
C_ C_ 0.772014 0.789998 0.0229477 0.0
C_ C_ 0.762653 0.820771 0.0425173 0.0
C_ C_ 0.715187 0.838822 0.0399812 0.0
C_ C_ 0.706251 0.867352 0.0594584 0.0
C_ C_ 0.747771 0.88051 0.0781469 0.0
C_ C_ 0.794133 0.863273 0.0803307 0.0
C_ C_ 0.800068 0.831574 0.0647812 0.0
C_ C_ 0.814769 0.870719 0.108527 0.0
C_ C_ 0.742217 0.898598 0.104984 0.0
C_ C_ 0.830943 0.980298 0.157908 0.0
C_ C_ 0.80574 0.955623 0.138186 0.0
C_ C_ 0.804812 0.919032 0.144794 0.0
C_ C_ 0.829843 0.908066 0.170973 0.0
C_ C_ 0.853144 0.933656 0.190606 0.0
C_ C_ 0.968039 0.78623 0.0827219 0.0
C_ C_ 0.998734 0.794726 0.110336 0.0
C_ C_ 0.717739 0.783773 0.113507 0.0
C_ C_ 0.746686 0.791779 0.139932 0.0
C_ C_ 0.721104 0.807109 0.164044 0.0
C_ C_ 0.00327862 0.818029 0.161023 0.0
C_ C_ 0.975938 0.81379 0.133871 0.0
C_ C_ 0.746357 0.829403 0.185137 0.0
C_ C_ 0.999445 0.846676 0.18031 0.0
C_ C_ 0.763715 0.907225 0.260949 0.0
C_ C_ 0.749875 0.87753 0.242992 0.0
C_ C_ 0.725461 0.882198 0.215202 0.0
C_ C_ 0.713699 0.916644 0.206373 0.0
C_ C_ 0.727456 0.945648 0.225242 0.0
N_ N_ 0.852935 0.719087 0.066102 0.0
N_ N_ 0.783611 0.642872 0.126543 0.0
N_ N_ 0.711527 0.601806 0.0536496 0.0
N_ N_ 0.754235 0.690701 0.9986 0.0
N_ N_ 0.813732 0.530913 0.316102 0.0
N_ N_ 0.883056 0.607128 0.376543 0.0
N_ N_ 0.95514 0.648194 0.30365 0.0
N_ N_ 0.912431 0.559299 0.2486 0.0
N_ N_ 0.813732 0.780913 0.433898 0.0
N_ N_ 0.883056 0.857128 0.373457 0.0
N_ N_ 0.95514 0.898194 0.44635 0.0
N_ N_ 0.912431 0.809299 0.5014 0.0
N_ N_ 0.852935 0.969087 0.183898 0.0
N_ N_ 0.783611 0.892872 0.123457 0.0
N_ N_ 0.711527 0.851806 0.19635 0.0
N_ N_ 0.754235 0.940701 0.2514 0.0
O_ O_ 0.79885 0.514997 0.217173 0.0
O_ O_ 0.743984 0.534476 0.250578 0.0
O_ O_ 0.695457 0.655721 0.134274 0.0
O_ O_ 0.865986 0.620132 0.13586 0.0
O_ O_ 0.925653 0.551058 0.172831 0.0
O_ O_ 0.978891 0.510599 0.184197 0.0
O_ O_ 0.95354 0.605994 0.059287 0.0
O_ O_ 0.78749 0.569983 0.0492879 0.0
O_ O_ 0.867816 0.735003 0.467173 0.0
O_ O_ 0.922682 0.715524 0.000578323 0.0
O_ O_ 0.97121 0.594279 0.384274 0.0
O_ O_ 0.80068 0.629868 0.38586 0.0
O_ O_ 0.741013 0.698942 0.422831 0.0
O_ O_ 0.687776 0.739401 0.434197 0.0
O_ O_ 0.713127 0.644007 0.309287 0.0
O_ O_ 0.879177 0.680017 0.299288 0.0
O_ O_ 0.867816 0.985003 0.282827 0.0
O_ O_ 0.922682 0.965524 0.249422 0.0
O_ O_ 0.97121 0.844279 0.365726 0.0
O_ O_ 0.80068 0.879868 0.36414 0.0
O_ O_ 0.741013 0.948942 0.327169 0.0
O_ O_ 0.687776 0.989401 0.315803 0.0
O_ O_ 0.713127 0.894007 0.440713 0.0
O_ O_ 0.879177 0.930017 0.450712 0.0
O_ O_ 0.79885 0.764997 0.032827 0.0
O_ O_ 0.743984 0.784476 0.499422 0.0
O_ O_ 0.695457 0.905721 0.115726 0.0
O_ O_ 0.865986 0.870132 0.11414 0.0
O_ O_ 0.925653 0.801058 0.0771694 0.0
O_ O_ 0.978891 0.760599 0.0658027 0.0
O_ O_ 0.95354 0.855994 0.190713 0.0
O_ O_ 0.78749 0.819983 0.200712 0.0
Cd Cd 0.896835 0.511719 0.71467 0.0
Cd Cd 0.769832 0.738281 0.96467 0.0
Cd Cd 0.769832 0.988281 0.78533 0.0
Cd Cd 0.896835 0.761719 0.53533 0.0
H_ H_ 0.684627 0.579745 0.725897 0.0
H_ H_ 0.00143727 0.629013 0.690298 0.0
H_ H_ 0.832225 0.565178 0.679747 0.0
H_ H_ 0.833728 0.758413 0.597662 0.0
H_ H_ 0.78881 0.714791 0.632561 0.0
H_ H_ 0.832514 0.629969 0.574356 0.0
H_ H_ 0.872183 0.675225 0.5391 0.0
H_ H_ 0.736312 0.52026 0.654784 0.0
H_ H_ 0.788447 0.536785 0.608694 0.0
H_ H_ 0.937697 0.574876 0.618937 0.0
H_ H_ 0.778699 0.653364 0.96672 0.0
H_ H_ 0.756465 0.600974 0.498905 0.0
H_ H_ 0.693888 0.670902 0.564808 0.0
H_ H_ 0.714938 0.721767 0.530389 0.0
H_ H_ 0.98204 0.670255 0.975897 0.0
H_ H_ 0.665229 0.620987 0.940298 0.0
H_ H_ 0.834442 0.684822 0.929747 0.0
H_ H_ 0.832939 0.991587 0.847662 0.0
H_ H_ 0.877857 0.535209 0.882561 0.0
H_ H_ 0.834153 0.620031 0.824356 0.0
H_ H_ 0.794483 0.574775 0.7891 0.0
H_ H_ 0.930355 0.72974 0.904784 0.0
H_ H_ 0.87822 0.713215 0.858694 0.0
H_ H_ 0.728969 0.675124 0.868937 0.0
H_ H_ 0.887968 0.596636 0.71672 0.0
H_ H_ 0.910202 0.649026 0.748905 0.0
H_ H_ 0.972779 0.579098 0.814808 0.0
H_ H_ 0.951728 0.528233 0.780389 0.0
H_ H_ 0.98204 0.920255 0.774103 0.0
H_ H_ 0.665229 0.870987 0.809702 0.0
H_ H_ 0.834442 0.934822 0.820253 0.0
H_ H_ 0.832939 0.741587 0.902338 0.0
H_ H_ 0.877857 0.785209 0.867439 0.0
H_ H_ 0.834153 0.870031 0.925644 0.0
H_ H_ 0.794483 0.824775 0.9609 0.0
H_ H_ 0.930355 0.97974 0.845216 0.0
H_ H_ 0.87822 0.963215 0.891306 0.0
H_ H_ 0.728969 0.925124 0.881063 0.0
H_ H_ 0.887968 0.846636 0.53328 0.0
H_ H_ 0.910202 0.899026 0.00109454 0.0
H_ H_ 0.972779 0.829098 0.935192 0.0
H_ H_ 0.951728 0.778233 0.969611 0.0
H_ H_ 0.684627 0.829745 0.524103 0.0
H_ H_ 0.00143726 0.879013 0.559702 0.0
H_ H_ 0.832225 0.815178 0.570253 0.0
H_ H_ 0.833728 0.508413 0.652338 0.0
H_ H_ 0.78881 0.964791 0.617439 0.0
H_ H_ 0.832514 0.879969 0.675644 0.0
H_ H_ 0.872183 0.925225 0.7109 0.0
H_ H_ 0.736312 0.77026 0.595216 0.0
H_ H_ 0.788447 0.786785 0.641306 0.0
H_ H_ 0.937697 0.824876 0.631063 0.0
H_ H_ 0.778699 0.903364 0.78328 0.0
H_ H_ 0.756465 0.850974 0.751095 0.0
H_ H_ 0.693888 0.920902 0.685192 0.0
H_ H_ 0.714938 0.971767 0.719611 0.0
C_ C_ 0.772014 0.539998 0.727052 0.0
C_ C_ 0.762653 0.570771 0.707483 0.0
C_ C_ 0.715187 0.588822 0.710019 0.0
C_ C_ 0.706251 0.617352 0.690542 0.0
C_ C_ 0.747771 0.63051 0.671853 0.0
C_ C_ 0.794133 0.613273 0.669669 0.0
C_ C_ 0.800068 0.581574 0.685219 0.0
C_ C_ 0.814769 0.620719 0.641473 0.0
C_ C_ 0.742217 0.648598 0.645016 0.0
C_ C_ 0.830943 0.730298 0.592092 0.0
C_ C_ 0.80574 0.705623 0.611814 0.0
C_ C_ 0.804812 0.669032 0.605206 0.0
C_ C_ 0.829843 0.658066 0.579027 0.0
C_ C_ 0.853144 0.683656 0.559394 0.0
C_ C_ 0.968039 0.53623 0.667278 0.0
C_ C_ 0.998734 0.544726 0.639664 0.0
C_ C_ 0.717739 0.533773 0.636493 0.0
C_ C_ 0.746686 0.541779 0.610068 0.0
C_ C_ 0.721104 0.557109 0.585956 0.0
C_ C_ 0.00327863 0.568029 0.588977 0.0
C_ C_ 0.975938 0.56379 0.616129 0.0
C_ C_ 0.746357 0.579403 0.564863 0.0
C_ C_ 0.999445 0.596676 0.56969 0.0
C_ C_ 0.763715 0.657225 0.989051 0.0
C_ C_ 0.749875 0.62753 0.507008 0.0
C_ C_ 0.725461 0.632198 0.534798 0.0
C_ C_ 0.713699 0.666644 0.543627 0.0
C_ C_ 0.727456 0.695648 0.524758 0.0
C_ C_ 0.894653 0.710002 0.977052 0.0
C_ C_ 0.904014 0.679229 0.957483 0.0
C_ C_ 0.95148 0.661178 0.960019 0.0
C_ C_ 0.960415 0.632648 0.940542 0.0
C_ C_ 0.918896 0.61949 0.921853 0.0
C_ C_ 0.872534 0.636727 0.919669 0.0
C_ C_ 0.866599 0.668426 0.935219 0.0
C_ C_ 0.851898 0.629281 0.891473 0.0
C_ C_ 0.924449 0.601402 0.895016 0.0
C_ C_ 0.835724 0.519702 0.842092 0.0
C_ C_ 0.860926 0.544377 0.861814 0.0
C_ C_ 0.861855 0.580968 0.855206 0.0
C_ C_ 0.836823 0.591934 0.829027 0.0
C_ C_ 0.813523 0.566344 0.809394 0.0
C_ C_ 0.698628 0.71377 0.917278 0.0
C_ C_ 0.667933 0.705274 0.889664 0.0
C_ C_ 0.948927 0.716227 0.886493 0.0
C_ C_ 0.91998 0.708221 0.860068 0.0
C_ C_ 0.945562 0.692891 0.835956 0.0
C_ C_ 0.663388 0.681971 0.838977 0.0
C_ C_ 0.690729 0.68621 0.866129 0.0
C_ C_ 0.92031 0.670597 0.814863 0.0
C_ C_ 0.667221 0.653324 0.81969 0.0
C_ C_ 0.902952 0.592775 0.739051 0.0
C_ C_ 0.916792 0.62247 0.757008 0.0
C_ C_ 0.941206 0.617802 0.784798 0.0
C_ C_ 0.952968 0.583356 0.793627 0.0
C_ C_ 0.93921 0.554352 0.774758 0.0
C_ C_ 0.894653 0.960002 0.772948 0.0
C_ C_ 0.904014 0.929229 0.792517 0.0
C_ C_ 0.95148 0.911178 0.789981 0.0
C_ C_ 0.960415 0.882648 0.809458 0.0
C_ C_ 0.918896 0.86949 0.828147 0.0
C_ C_ 0.872534 0.886727 0.830331 0.0
C_ C_ 0.866599 0.918426 0.814781 0.0
C_ C_ 0.851898 0.879281 0.858527 0.0
C_ C_ 0.924449 0.851402 0.854984 0.0
C_ C_ 0.835724 0.769702 0.907908 0.0
C_ C_ 0.860926 0.794377 0.888186 0.0
C_ C_ 0.861855 0.830968 0.894794 0.0
C_ C_ 0.836823 0.841934 0.920973 0.0
C_ C_ 0.813523 0.816344 0.940606 0.0
C_ C_ 0.698628 0.96377 0.832722 0.0
C_ C_ 0.667933 0.955274 0.860336 0.0
C_ C_ 0.948927 0.966227 0.863507 0.0
C_ C_ 0.91998 0.958221 0.889932 0.0
C_ C_ 0.945562 0.942891 0.914044 0.0
C_ C_ 0.663388 0.931971 0.911023 0.0
C_ C_ 0.690729 0.93621 0.883871 0.0
C_ C_ 0.92031 0.920597 0.935137 0.0
C_ C_ 0.667221 0.903324 0.93031 0.0
C_ C_ 0.902952 0.842775 0.510949 0.0
C_ C_ 0.916792 0.87247 0.992992 0.0
C_ C_ 0.941206 0.867802 0.965202 0.0
C_ C_ 0.952968 0.833356 0.956373 0.0
C_ C_ 0.93921 0.804352 0.975242 0.0
C_ C_ 0.772014 0.789998 0.522948 0.0
C_ C_ 0.762653 0.820771 0.542517 0.0
C_ C_ 0.715187 0.838822 0.539981 0.0
C_ C_ 0.706251 0.867352 0.559458 0.0
C_ C_ 0.747771 0.88051 0.578147 0.0
C_ C_ 0.794133 0.863273 0.580331 0.0
C_ C_ 0.800068 0.831574 0.564781 0.0
C_ C_ 0.814769 0.870719 0.608527 0.0
C_ C_ 0.742217 0.898598 0.604984 0.0
C_ C_ 0.830943 0.980298 0.657908 0.0
C_ C_ 0.80574 0.955623 0.638186 0.0
C_ C_ 0.804812 0.919032 0.644794 0.0
C_ C_ 0.829843 0.908066 0.670973 0.0
C_ C_ 0.853144 0.933656 0.690606 0.0
C_ C_ 0.968039 0.78623 0.582722 0.0
C_ C_ 0.998734 0.794726 0.610336 0.0
C_ C_ 0.717739 0.783773 0.613507 0.0
C_ C_ 0.746686 0.791779 0.639932 0.0
C_ C_ 0.721104 0.807109 0.664044 0.0
C_ C_ 0.00327862 0.818029 0.661023 0.0
C_ C_ 0.975938 0.81379 0.633871 0.0
C_ C_ 0.746357 0.829403 0.685137 0.0
C_ C_ 0.999445 0.846676 0.68031 0.0
C_ C_ 0.763715 0.907225 0.760949 0.0
C_ C_ 0.749875 0.87753 0.742992 0.0
C_ C_ 0.725461 0.882198 0.715202 0.0
C_ C_ 0.713699 0.916644 0.706373 0.0
C_ C_ 0.727456 0.945648 0.725242 0.0
N_ N_ 0.852935 0.719087 0.566102 0.0
N_ N_ 0.783611 0.642872 0.626543 0.0
N_ N_ 0.711527 0.601806 0.55365 0.0
N_ N_ 0.754235 0.690701 0.4986 0.0
N_ N_ 0.813732 0.530913 0.816102 0.0
N_ N_ 0.883056 0.607128 0.876543 0.0
N_ N_ 0.95514 0.648194 0.80365 0.0
N_ N_ 0.912431 0.559299 0.7486 0.0
N_ N_ 0.813732 0.780913 0.933898 0.0
N_ N_ 0.883056 0.857128 0.873457 0.0
N_ N_ 0.95514 0.898194 0.94635 0.0
N_ N_ 0.912431 0.809299 0.00139979 0.0
N_ N_ 0.852935 0.969087 0.683898 0.0
N_ N_ 0.783611 0.892872 0.623457 0.0
N_ N_ 0.711527 0.851806 0.69635 0.0
N_ N_ 0.754235 0.940701 0.7514 0.0
O_ O_ 0.79885 0.514997 0.717173 0.0
O_ O_ 0.743984 0.534476 0.750578 0.0
O_ O_ 0.695457 0.655721 0.634274 0.0
O_ O_ 0.865986 0.620132 0.63586 0.0
O_ O_ 0.925653 0.551058 0.672831 0.0
O_ O_ 0.978891 0.510599 0.684197 0.0
O_ O_ 0.95354 0.605994 0.559287 0.0
O_ O_ 0.78749 0.569983 0.549288 0.0
O_ O_ 0.867816 0.735003 0.967173 0.0
O_ O_ 0.922682 0.715524 0.500578 0.0
O_ O_ 0.97121 0.594279 0.884274 0.0
O_ O_ 0.80068 0.629868 0.88586 0.0
O_ O_ 0.741013 0.698942 0.922831 0.0
O_ O_ 0.687776 0.739401 0.934197 0.0
O_ O_ 0.713127 0.644007 0.809287 0.0
O_ O_ 0.879177 0.680017 0.799288 0.0
O_ O_ 0.867816 0.985003 0.782827 0.0
O_ O_ 0.922682 0.965524 0.749422 0.0
O_ O_ 0.97121 0.844279 0.865726 0.0
O_ O_ 0.80068 0.879868 0.86414 0.0
O_ O_ 0.741013 0.948942 0.827169 0.0
O_ O_ 0.687776 0.989401 0.815803 0.0
O_ O_ 0.713127 0.894007 0.940713 0.0
O_ O_ 0.879177 0.930017 0.950712 0.0
O_ O_ 0.79885 0.764997 0.532827 0.0
O_ O_ 0.743984 0.784476 0.999422 0.0
O_ O_ 0.695457 0.905721 0.615726 0.0
O_ O_ 0.865986 0.870132 0.61414 0.0
O_ O_ 0.925653 0.801058 0.577169 0.0
O_ O_ 0.978891 0.760599 0.565803 0.0
O_ O_ 0.95354 0.855994 0.690713 0.0
O_ O_ 0.78749 0.819983 0.700712 0.0
