_cell_length_a 25.179
_cell_length_b 37.484199844079754
_cell_length_c 44.4702
_cell_angle_alpha 90.0
_cell_angle_beta 90.0
_cell_angle_gamma 94.03100043039683
_symmetry_space_group_name_H-M         'P 1'
_symmetry_Int_Tables_number            1
loop_
_symmetry_equiv_pos_as_xyz
   'x, y, z'
                         
loop_
_atom_site_label
_atom_site_type_symbol
_atom_site_fract_x 
_atom_site_fract_y
_atom_site_fract_z
_atom_site_charge
Cd Cd 0.235936 0.0125807 0.213073 0.0
Cd Cd 0.103974 0.238444 0.463715 0.0
Cd Cd 0.111725 0.487578 0.289145 0.0
Cd Cd 0.230301 0.26772 0.0400247 0.0
H_ H_ 0.0218197 0.0856628 0.22962 0.0
H_ H_ 0.337308 0.130354 0.192223 0.0
H_ H_ 0.173686 0.0700804 0.187307 0.0
H_ H_ 0.205517 0.273419 0.11125 0.0
H_ H_ 0.174401 0.2368 0.152868 0.0
H_ H_ 0.135307 0.152254 0.0852949 0.0
H_ H_ 0.16527 0.193226 0.0484688 0.0
H_ H_ 0.0697856 0.0210329 0.15557 0.0
H_ H_ 0.118906 0.0349153 0.105628 0.0
H_ H_ 0.265378 0.0735469 0.115713 0.0
H_ H_ 0.114203 0.15425 0.467232 0.0
H_ H_ 0.105857 0.105964 1.00462 0.0
H_ H_ 0.0264769 0.174127 0.0655875 0.0
H_ H_ 0.0375338 0.223079 0.0291497 0.0
H_ H_ 0.260614 0.146955 0.50078 0.0
H_ H_ 0.99457646 0.117578 0.443966 0.0
H_ H_ 0.178194 0.188552 0.424043 0.0
H_ H_ 0.122382 0.482722 0.361204 0.0
H_ H_ 0.147338 0.0224882 0.397121 0.0
H_ H_ 0.216655 0.0967049 0.334126 0.0
H_ H_ 0.175717 0.0587006 0.292954 0.0
H_ H_ 0.260909 0.224173 0.402967 0.0
H_ H_ 0.211021 0.203891 0.356068 0.0
H_ H_ 0.0635357 0.173275 0.36774 0.0
H_ H_ 0.233272 0.0998869 0.213859 0.0
H_ H_ 0.252478 0.15089 0.246443 0.0
H_ H_ 0.32635 0.0811107 0.309256 0.0
H_ H_ 0.304582 0.0300022 0.274732 0.0
H_ H_ 0.283225 0.405441 0.256364 0.0
H_ H_ 0.99243527 0.366089 0.304596 0.0
H_ H_ 0.196 0.449014 0.329988 0.0
H_ H_ 0.155366 0.323936 0.462513 0.0
H_ H_ 0.18653 0.368282 0.425468 0.0
H_ H_ 0.198349 0.287965 0.359296 0.0
H_ H_ 0.146958 0.245806 0.394414 0.0
H_ H_ 0.28552 0.496684 0.357789 0.0
H_ H_ 0.23323 0.479369 0.40525 0.0
H_ H_ 0.0565264 0.418588 0.379882 0.0
H_ H_ 0.205311 0.352347 0.0216848 0.0
H_ H_ 0.254207 0.402907 0.506397 0.0
H_ H_ 0.298987 0.333839 0.433069 0.0
H_ H_ 0.283074 0.28357 0.467564 0.0
H_ H_ 0.021054 0.331568 0.0246478 0.0
H_ H_ 0.345208 0.38372 0.0556838 0.0
H_ H_ 0.170883 0.315198 0.0693992 0.0
H_ H_ 0.155627 0.00999841 0.158236 0.0
H_ H_ 0.13123 0.476991 0.112362 0.0
H_ H_ 0.169452 0.388982 0.166666 0.0
H_ H_ 0.193586 0.432313 0.205726 0.0
H_ H_ 0.0697265 0.267086 0.0941464 0.0
H_ H_ 0.12367 0.294493 0.136821 0.0
H_ H_ 0.272592 0.325596 0.133691 0.0
H_ H_ 0.118395 0.400096 0.282307 0.0
H_ H_ 0.0910862 0.348441 0.255021 0.0
H_ H_ 0.0261376 0.423111 0.190075 0.0
H_ H_ 0.0587133 0.473369 0.223119 0.0
C_ C_ 0.109299 0.0441747 0.229973 0.0
C_ C_ 0.0972573 0.0727497 0.208669 0.0
C_ C_ 0.0503878 0.0905865 0.211127 0.0
C_ C_ 0.0372012 0.114641 0.188765 0.0
C_ C_ 0.0751193 0.124225 0.166468 0.0
C_ C_ 0.123457 0.108348 0.165488 0.0
C_ C_ 0.135575 0.083059 0.186162 0.0
C_ C_ 0.160568 0.134728 0.153149 0.0
C_ C_ 0.0850584 0.159249 0.154804 0.0
C_ C_ 0.191904 0.245617 0.107018 0.0
C_ C_ 0.174479 0.223977 0.130004 0.0
C_ C_ 0.153859 0.18936 0.123601 0.0
C_ C_ 0.155283 0.176957 0.0932019 0.0
C_ C_ 0.170326 0.200855 0.0711226 0.0
C_ C_ 0.298075 0.0335393 0.163126 0.0
C_ C_ 0.32614 0.0396919 0.135282 0.0
C_ C_ 0.0523822 0.0362515 0.137594 0.0
C_ C_ 0.0798478 0.0397107 0.109466 0.0
C_ C_ 0.0543394 0.0573489 0.0862547 0.0
C_ C_ 0.328217 0.0645922 0.0842238 0.0
C_ C_ 0.304154 0.0615554 0.112769 0.0
C_ C_ 0.0795119 0.0787567 0.0638906 0.0
C_ C_ 0.327867 0.095339 0.0664131 0.0
C_ C_ 0.100905 0.15793 0.489108 0.0
C_ C_ 0.0871657 0.129537 0.00941469 0.0
C_ C_ 0.0600764 0.134412 0.0360088 0.0
C_ C_ 0.0453623 0.168271 0.0438516 0.0
C_ C_ 0.051796 0.196635 0.0237171 0.0
C_ C_ 0.225607 0.207966 0.477203 0.0
C_ C_ 0.222617 0.171825 0.463413 0.0
C_ C_ 0.241506 0.14349 0.479154 0.0
C_ C_ 0.235314 0.108191 0.467105 0.0
C_ C_ 0.202768 0.102728 0.440334 0.0
C_ C_ 0.186079 0.131274 0.424461 0.0
C_ C_ 0.196079 0.166829 0.43531 0.0
C_ C_ 0.180714 0.120339 0.394725 0.0
C_ C_ 0.20742 0.0752881 0.418653 0.0
C_ C_ 0.145294 0.00733466 0.351718 0.0
C_ C_ 0.155344 0.0320369 0.374198 0.0
C_ C_ 0.185374 0.0643494 0.367627 0.0
C_ C_ 0.197202 0.072521 0.338255 0.0
C_ C_ 0.17671 0.0499665 0.315673 0.0
C_ C_ 0.0337289 0.213664 0.417408 0.0
C_ C_ 0.000566691 0.204198 0.3903 0.0
C_ C_ 0.279752 0.21325 0.383836 0.0
C_ C_ 0.253743 0.205939 0.3563 0.0
C_ C_ 0.283635 0.195272 0.332114 0.0
C_ C_ 0.996748 0.181149 0.338713 0.0
C_ C_ 0.0218717 0.184181 0.366716 0.0
C_ C_ 0.262375 0.171901 0.309999 0.0
C_ C_ 0.00102288 0.15215 0.319971 0.0
C_ C_ 0.254491 0.0945174 0.234734 0.0
C_ C_ 0.263648 0.123795 0.253349 0.0
C_ C_ 0.291245 0.119644 0.280436 0.0
C_ C_ 0.304785 0.0855404 0.289654 0.0
C_ C_ 0.289409 0.0557435 0.271304 0.0
C_ C_ 0.233468 0.464568 0.273249 0.0
C_ C_ 0.242366 0.431998 0.292193 0.0
C_ C_ 0.272559 0.403856 0.279716 0.0
C_ C_ 0.284744 0.376562 0.298031 0.0
C_ C_ 0.272467 0.377769 0.329693 0.0
C_ C_ 0.241185 0.402817 0.340507 0.0
C_ C_ 0.222086 0.428576 0.321672 0.0
C_ C_ 0.213495 0.388682 0.363879 0.0
C_ C_ 0.263674 0.347733 0.348384 0.0
C_ C_ 0.162835 0.31538 0.440281 0.0
C_ C_ 0.184509 0.340545 0.419827 0.0
C_ C_ 0.201178 0.330642 0.390704 0.0
C_ C_ 0.191387 0.295296 0.382781 0.0
C_ C_ 0.164836 0.27026 0.403535 0.0
C_ C_ 0.0318162 0.461001 0.332446 0.0
C_ C_ -0.00114044 0.451851 0.359533 0.0
C_ C_ 0.295856 0.475684 0.372312 0.0
C_ C_ 0.273357 0.470041 0.401096 0.0
C_ C_ 0.299329 0.451399 0.423557 0.0
C_ C_ 0.996628 0.432756 0.410963 0.0
C_ C_ 0.0208081 0.432897 0.38292 0.0
C_ C_ 0.274996 0.432002 0.446985 0.0
C_ C_ 0.00234722 0.405193 0.432051 0.0
C_ C_ 0.235334 0.346662 0.005148 0.0
C_ C_ 0.257944 0.376649 0.496987 0.0
C_ C_ 0.282204 0.373054 0.468756 0.0
C_ C_ 0.290645 0.338192 0.458022 0.0
C_ C_ 0.27757 0.308679 0.475341 0.0
C_ C_ 0.104373 0.290747 0.0252659 0.0
C_ C_ 0.093163 0.318986 0.0463904 0.0
C_ C_ 0.0488124 0.338851 0.0418301 0.0
C_ C_ 0.0360506 0.365176 0.0631306 0.0
C_ C_ 0.0715413 0.371816 0.0878238 0.0
C_ C_ 0.119472 0.354202 0.0880427 0.0
C_ C_ 0.131901 0.328162 0.0678535 0.0
C_ C_ 0.153478 0.375667 0.104352 0.0
C_ C_ 0.0796542 0.402433 0.102654 0.0
C_ C_ 0.170629 0.489493 0.153909 0.0
C_ C_ 0.145946 0.466824 0.13213 0.0
C_ C_ 0.145342 0.430045 0.136211 0.0
C_ C_ 0.164966 0.416811 0.162859 0.0
C_ C_ 0.182584 0.440978 0.185183 0.0
C_ C_ 0.305724 0.289757 0.0855743 0.0
C_ C_ 0.337094 0.298301 0.11375 0.0
C_ C_ 0.0513779 0.282156 0.112963 0.0
C_ C_ 0.0808591 0.292536 0.138499 0.0
C_ C_ 0.0537022 0.30864 0.163543 0.0
C_ C_ 0.334819 0.318844 0.165305 0.0
C_ C_ 0.312683 0.316984 0.136569 0.0
C_ C_ 0.0790487 0.329283 0.187176 0.0
C_ C_ 0.332385 0.348517 0.183701 0.0
C_ C_ 0.0963391 0.405465 0.263717 0.0
C_ C_ 0.0804653 0.376134 0.245989 0.0
C_ C_ 0.0552005 0.38136 0.218197 0.0
C_ C_ 0.0500444 0.416981 0.208615 0.0
C_ C_ 0.0675888 0.446158 0.2275 0.0
N_ N_ 0.189756 0.23402 0.0782276 0.0
N_ N_ 0.136716 0.165344 0.147945 0.0
N_ N_ 0.0455442 0.102625 0.0541842 0.0
N_ N_ 0.0828426 0.193591 0.999092 0.0
N_ N_ 0.152136 0.0165342 0.322243 0.0
N_ N_ 0.200081 0.0873045 0.391008 0.0
N_ N_ 0.2993 0.149782 0.3 0.0
N_ N_ 0.263987 0.0605059 0.244874 0.0
N_ N_ 0.150022 0.281217 0.430489 0.0
N_ N_ 0.227042 0.355627 0.368975 0.0
N_ N_ 0.303872 0.40411 0.454474 0.0
N_ N_ 0.250291 0.313104 0.500765 0.0
N_ N_ 0.187024 0.476276 0.180377 0.0
N_ N_ 0.129154 0.40593 0.111792 0.0
N_ N_ 0.0442339 0.352092 0.197769 0.0
N_ N_ 0.0967298 0.440292 0.252383 0.0
O_ O_ 0.136409 0.0191222 0.21966 0.0
O_ O_ 0.0823801 0.0391315 0.253795 0.0
O_ O_ 0.0474046 0.176917 0.142886 0.0
O_ O_ 0.214386 0.136133 0.156206 0.0
O_ O_ 0.258579 0.0499827 0.169337 0.0
O_ O_ 0.310361 0.00911345 0.180905 0.0
O_ O_ 0.282066 0.105009 0.0564103 0.0
O_ O_ 0.131686 0.0842229 0.0631191 0.0
O_ O_ 0.200801 0.233413 0.465442 0.0
O_ O_ 0.24844 0.217839 0.00863909 0.0
O_ O_ 0.240704 0.0502955 0.424635 0.0
O_ O_ 0.172528 0.141157 0.371877 0.0
O_ O_ 0.0753759 0.196696 0.422948 0.0
O_ O_ 0.0253677 0.241243 0.43281 0.0
O_ O_ 0.0472442 0.141949 0.309409 0.0
O_ O_ 0.218273 0.177566 0.294657 0.0
O_ O_ 0.206508 0.489738 0.283495 0.0
O_ O_ 0.257734 0.467745 0.248534 0.0
O_ O_ 0.302147 0.328506 0.356083 0.0
O_ O_ 0.17556 0.404206 0.377099 0.0
O_ O_ 0.0725851 0.443664 0.327218 0.0
O_ O_ 0.0277842 0.490012 0.317832 0.0
O_ O_ 0.03627 0.3808 0.429792 0.0
O_ O_ 0.221849 0.430166 0.451062 0.0
O_ O_ 0.134226 0.266052 0.0324852 0.0
O_ O_ 0.0814147 0.285477 0.498782 0.0
O_ O_ 0.0527145 0.430715 0.0984796 0.0
O_ O_ 0.204566 0.376192 0.0994354 0.0
O_ O_ 0.271924 0.311143 0.0756428 0.0
O_ O_ 0.313712 0.262788 0.0686526 0.0
O_ O_ 0.305673 0.376074 0.176681 0.0
O_ O_ 0.131082 0.332221 0.193364 0.0
Cd Cd 0.227402 0.010051 0.712871 0.0
Cd Cd 0.0988045 0.240703 0.967074 0.0
Cd Cd 0.101163 0.488371 0.785479 0.0
Cd Cd 0.236004 0.262165 0.53323 0.0
H_ H_ 0.0163014 0.0852767 0.729185 0.0
H_ H_ 0.399903 0.158083 0.71559 0.0
H_ H_ 0.1663 0.064493 0.685065 0.0
H_ H_ 0.180248 0.258328 0.601167 0.0
H_ H_ 0.138465 0.21529 0.637072 0.0
H_ H_ 0.16764 0.128473 0.577266 0.0
H_ H_ 0.209452 0.171912 0.543217 0.0
H_ H_ 0.070175 0.0305401 0.658227 0.0
H_ H_ 0.118516 0.0332771 0.60767 0.0
H_ H_ 0.263575 0.0691552 0.615206 0.0
H_ H_ 0.119858 0.157995 0.967754 0.0
H_ H_ 0.102163 0.102296 0.500881 0.0
H_ H_ 0.0276123 0.170987 0.563374 0.0
H_ H_ 0.0332164 0.218005 0.525865 0.0
H_ H_ 0.269065 0.151476 1.00321349 0.0
H_ H_ 0.99599878 0.117352 0.943424 0.0
H_ H_ 0.178809 0.191136 0.929705 0.0
H_ H_ 0.150051 0.495701 0.850847 0.0
H_ H_ 0.17172 0.026346 0.89709 0.0
H_ H_ 0.205066 0.11245 0.834833 0.0
H_ H_ 0.17119 0.0716442 0.792586 0.0
H_ H_ 0.266897 0.22345 0.902382 0.0
H_ H_ 0.218706 0.213861 0.849972 0.0
H_ H_ 0.0587324 0.174002 0.869428 0.0
H_ H_ 0.245768 0.0997035 0.710371 0.0
H_ H_ 0.265905 0.152652 0.742456 0.0
H_ H_ 0.315019 0.0821972 0.812098 0.0
H_ H_ 0.289969 0.0300172 0.779794 0.0
H_ H_ 0.231542 0.396626 0.744161 0.0
H_ H_ -0.001583000000000001 0.371455 0.809943 0.0
H_ H_ 0.194278 0.450022 0.827455 0.0
H_ H_ 0.0687145 0.318605 0.942446 0.0
H_ H_ 0.089272 0.360666 0.897964 0.0
H_ H_ 0.225631 0.299124 0.878469 0.0
H_ H_ 0.199946 0.259483 0.923282 0.0
H_ H_ 0.278463 0.496497 0.854536 0.0
H_ H_ 0.221703 0.472821 0.896694 0.0
H_ H_ 0.066494 0.433393 0.885265 0.0
H_ H_ 0.231577 0.348984 0.536545 0.0
H_ H_ 0.257775 0.40298 0.992657 0.0
H_ H_ 0.317735 0.325276 0.937137 0.0
H_ H_ 0.292061 0.278441 0.976187 0.0
H_ H_ 0.0179819 0.327869 0.525274 0.0
H_ H_ 0.426424 0.413598 0.521571 0.0
H_ H_ 0.166465 0.317959 0.572563 0.0
H_ H_ 0.164282 0.00142221 0.654821 0.0
H_ H_ 0.151319 0.47022 0.60664 0.0
H_ H_ 0.145058 0.390944 0.6764 0.0
H_ H_ 0.189833 0.43503 0.71184 0.0
H_ H_ 0.0708361 0.264493 0.598602 0.0
H_ H_ 0.125646 0.295924 0.638653 0.0
H_ H_ 0.318719 0.357324 0.60194 0.0
H_ H_ 0.100861 0.403516 0.782883 0.0
H_ H_ 0.0747197 0.351304 0.752845 0.0
H_ H_ 0.0351409 0.423081 0.680405 0.0
H_ H_ 0.0524939 0.473077 0.717857 0.0
C_ C_ 0.105081 0.0421817 0.733154 0.0
C_ C_ 0.0971172 0.0718972 0.712655 0.0
C_ C_ 0.0506501 0.092047 0.715248 0.0
C_ C_ 0.0419655 0.118921 0.694301 0.0
C_ C_ 0.0839331 0.130919 0.676205 0.0
C_ C_ 0.130204 0.11329 0.674144 0.0
C_ C_ 0.13517 0.0822647 0.69065 0.0
C_ C_ 0.153362 0.121959 0.64737 0.0
C_ C_ 0.0809678 0.14925 0.647868 0.0
C_ C_ 0.174359 0.229063 0.596264 0.0
C_ C_ 0.152037 0.204898 0.616954 0.0
C_ C_ 0.146414 0.168915 0.610313 0.0
C_ C_ 0.169928 0.156524 0.583657 0.0
C_ C_ 0.19576 0.180643 0.564458 0.0
C_ C_ 0.295832 0.0352298 0.664936 0.0
C_ C_ 0.327159 0.0420321 0.637504 0.0
C_ C_ 0.0501041 0.0373907 0.637453 0.0
C_ C_ 0.0775773 0.0410545 0.60962 0.0
C_ C_ 0.0527958 0.0562462 0.585646 0.0
C_ C_ 0.33269 0.06737 0.586147 0.0
C_ C_ 0.303447 0.0617129 0.612896 0.0
C_ C_ 0.0784866 0.0778017 0.563925 0.0
C_ C_ 0.327786 0.0941797 0.565594 0.0
C_ C_ 0.0986449 0.161132 0.990021 0.0
C_ C_ 0.0906703 0.128009 0.507679 0.0
C_ C_ 0.059806 0.132224 0.534732 0.0
C_ C_ 0.0423452 0.165501 0.541667 0.0
C_ C_ 0.0517681 0.194467 0.521675 0.0
C_ C_ 0.219658 0.210195 0.985725 0.0
C_ C_ 0.231408 0.176769 0.966746 0.0
C_ C_ 0.256584 0.149223 0.979892 0.0
C_ C_ 0.270143 0.118468 0.962284 0.0
C_ C_ 0.255925 0.118541 0.932075 0.0
C_ C_ 0.225656 0.144734 0.919966 0.0
C_ C_ 0.208504 0.171853 0.93837 0.0
C_ C_ 0.197957 0.127855 0.895515 0.0
C_ C_ 0.246928 0.0876003 0.915278 0.0
C_ C_ 0.162925 0.0121255 0.84977 0.0
C_ C_ 0.179468 0.034843 0.873779 0.0
C_ C_ 0.194934 0.070634 0.868517 0.0
C_ C_ 0.193405 0.0834926 0.839152 0.0
C_ C_ 0.177197 0.0614377 0.814826 0.0
C_ C_ 0.0352192 0.219193 0.914896 0.0
C_ C_ 0.00204145 0.206661 0.888793 0.0
C_ C_ 0.28702 0.216611 0.881303 0.0
C_ C_ 0.260936 0.208167 0.854252 0.0
C_ C_ 0.290525 0.195091 0.830641 0.0
C_ C_ 0.997017 0.182659 0.83882 0.0
C_ C_ 0.0232751 0.186413 0.865921 0.0
C_ C_ 0.269253 0.17438 0.807734 0.0
C_ C_ 0.00164907 0.154903 0.818652 0.0
C_ C_ 0.256362 0.0950433 0.732844 0.0
C_ C_ 0.270493 0.125186 0.751219 0.0
C_ C_ 0.292148 0.120197 0.779323 0.0
C_ C_ 0.298208 0.0863506 0.789291 0.0
C_ C_ 0.279478 0.0561185 0.771466 0.0
C_ C_ 0.224635 0.463967 0.770043 0.0
C_ C_ 0.218184 0.429117 0.78473 0.0
C_ C_ 0.217818 0.397828 0.76724 0.0
C_ C_ 0.205367 0.363994 0.781514 0.0
C_ C_ 0.207493 0.363631 0.813417 0.0
C_ C_ 0.212114 0.394563 0.829817 0.0
C_ C_ 0.209411 0.427258 0.815906 0.0
C_ C_ 0.184802 0.386305 0.856202 0.0
C_ C_ 0.181491 0.336437 0.832051 0.0
C_ C_ 0.106062 0.316887 0.930042 0.0
C_ C_ 0.118672 0.340066 0.905812 0.0
C_ C_ 0.161847 0.332875 0.885724 0.0
C_ C_ 0.190318 0.303107 0.89148 0.0
C_ C_ 0.175228 0.280958 0.916195 0.0
C_ C_ 0.0295652 0.46191 0.833186 0.0
C_ C_ 1.00186368 0.456309 0.861665 0.0
C_ C_ 0.291717 0.47711 0.868975 0.0
C_ C_ 0.263078 0.466941 0.894016 0.0
C_ C_ 0.287039 0.446313 0.915875 0.0
C_ C_ 0.997582 0.434548 0.912969 0.0
C_ C_ 0.0247722 0.437559 0.885183 0.0
C_ C_ 0.259585 0.421412 0.93388 0.0
C_ C_ 0.00049933 0.40568 0.932074 0.0
C_ C_ 0.243784 0.346147 0.513405 0.0
C_ C_ 0.259212 0.375159 0.987886 0.0
C_ C_ 0.278884 0.365963 0.959541 0.0
C_ C_ 0.293371 0.332024 0.955499 0.0
C_ C_ 0.277122 0.304063 0.977984 0.0
C_ C_ 0.106943 0.290281 0.524298 0.0
C_ C_ 0.0953065 0.320026 0.545197 0.0
C_ C_ 0.0465519 0.336145 0.542612 0.0
C_ C_ 0.0390948 0.366376 0.560457 0.0
C_ C_ 0.0829326 0.384715 0.575822 0.0
C_ C_ 0.1293 0.368012 0.578632 0.0
C_ C_ 0.133013 0.332757 0.567048 0.0
C_ C_ 0.151012 0.379469 0.605949 0.0
C_ C_ 0.079216 0.406798 0.600601 0.0
C_ C_ 0.179684 0.487488 0.651237 0.0
C_ C_ 0.157569 0.462023 0.63053 0.0
C_ C_ 0.142081 0.427879 0.640394 0.0
C_ C_ 0.155571 0.417365 0.668942 0.0
C_ C_ 0.179911 0.442942 0.688177 0.0
C_ C_ 0.311061 0.289583 0.576663 0.0
C_ C_ 0.346285 0.302446 0.60058 0.0
C_ C_ 0.0511697 0.285034 0.613613 0.0
C_ C_ 0.0815291 0.295521 0.639286 0.0
C_ C_ 0.0552316 0.308771 0.663782 0.0
C_ C_ 0.371168 0.347012 0.639198 0.0
C_ C_ 0.341745 0.337613 0.613591 0.0
C_ C_ 0.0779915 0.330206 0.685009 0.0
C_ C_ 0.354171 0.370685 0.660441 0.0
C_ C_ 0.0889526 0.407649 0.761121 0.0
C_ C_ 0.0724738 0.37772 0.743367 0.0
C_ C_ 0.0557541 0.382643 0.713582 0.0
C_ C_ 0.0465737 0.418023 0.704457 0.0
C_ C_ 0.0568812 0.447382 0.724348 0.0
N_ N_ 0.195253 0.217113 0.569675 0.0
N_ N_ 0.123636 0.144043 0.631814 0.0
N_ N_ 0.0448765 0.101616 0.552977 0.0
N_ N_ 0.0859092 0.191379 0.497764 0.0
N_ N_ 0.160284 0.0265688 0.821396 0.0
N_ N_ 0.21046 0.093842 0.893375 0.0
N_ N_ 0.304336 0.150749 0.798659 0.0
N_ N_ 0.257763 0.0616161 0.743277 0.0
N_ N_ 0.136148 0.289239 0.935964 0.0
N_ N_ 0.164769 0.351823 0.856934 0.0
N_ N_ 0.289502 0.392996 0.93706 0.0
N_ N_ 0.250087 0.312559 0.00133712 0.0
N_ N_ 0.187219 0.478287 0.679492 0.0
N_ N_ 0.120904 0.402288 0.61937 0.0
N_ N_ 0.0438963 0.352504 0.69505 0.0
N_ N_ 0.0811903 0.441665 0.751551 0.0
O_ O_ 0.127433 0.0146001 0.72238 0.0
O_ O_ 0.0819214 0.041167 0.758717 0.0
O_ O_ 0.0377979 0.160301 0.634904 0.0
O_ O_ 0.203494 0.118595 0.640425 0.0
O_ O_ 0.246344 0.0432651 0.666132 0.0
O_ O_ 0.311412 0.0159647 0.686258 0.0
O_ O_ 0.289669 0.118194 0.567291 0.0
O_ O_ 0.118175 0.0666691 0.549136 0.0
O_ O_ 0.19659 0.234423 0.974335 0.0
O_ O_ 0.252954 0.213282 0.501535 0.0
O_ O_ 0.282102 0.0643663 0.911311 0.0
O_ O_ 0.152968 0.138994 0.885486 0.0
O_ O_ 0.0812538 0.210008 0.9185 0.0
O_ O_ 0.0168965 0.238702 0.935893 0.0
O_ O_ 0.0396222 0.132229 0.8204 0.0
O_ O_ 0.223874 0.178999 0.791916 0.0
O_ O_ 0.195443 0.489424 0.777112 0.0
O_ O_ 0.257615 0.469432 0.749518 0.0
O_ O_ 0.155502 0.308836 0.820112 0.0
O_ O_ 0.162372 0.411368 0.872843 0.0
O_ O_ 0.0739683 0.450352 0.828887 0.0
O_ O_ 0.015817 0.486231 0.815207 0.0
O_ O_ 0.0463565 0.398535 0.943739 0.0
O_ O_ 0.208105 0.41779 0.93434 0.0
O_ O_ 0.1361 0.265386 0.532355 0.0
O_ O_ 0.0725194 0.285026 1.0027 0.0
O_ O_ 0.033721 0.419043 0.610182 0.0
O_ O_ 0.184148 0.36128 0.620893 0.0
O_ O_ 0.26403 0.29684 0.576631 0.0
O_ O_ 0.325897 0.268482 0.556042 0.0
O_ O_ 0.33968 0.402749 0.653677 0.0
O_ O_ 0.118104 0.32056 0.702286 0.0
Cd Cd 0.230212 0.513808 0.21353 0.0
Cd Cd 0.104871 0.737982 0.463748 0.0
Cd Cd 0.103308 0.985853 0.285499 0.0
Cd Cd 0.228156 0.763953 0.0348482 0.0
H_ H_ 0.0192235 0.584298 0.230542 0.0
H_ H_ 0.33428 0.628308 0.188718 0.0
H_ H_ 0.163485 0.567765 0.183348 0.0
H_ H_ 0.179435 0.761086 0.102873 0.0
H_ H_ 0.134105 0.71886 0.137153 0.0
H_ H_ 0.161212 0.630946 0.076594 0.0
H_ H_ 0.208459 0.678092 0.0421509 0.0
H_ H_ 0.0742614 0.526016 0.157883 0.0
H_ H_ 0.12457 0.546483 0.111955 0.0
H_ H_ 0.267634 0.56667 0.115971 0.0
H_ H_ 0.106858 0.652128 0.464057 0.0
H_ H_ 0.0912553 0.599844 1.000455295 0.0
H_ H_ 0.0155544 0.669231 0.0599722 0.0
H_ H_ 0.0487772 0.719522 0.0288603 0.0
H_ H_ 0.291911 0.658553 0.495249 0.0
H_ H_ 0.99705607 0.619058 0.441989 0.0
H_ H_ 0.179435 0.686494 0.429829 0.0
H_ H_ 0.127294 0.981007 0.357381 0.0
H_ H_ 0.151775 0.521441 0.402873 0.0
H_ H_ 0.20806 0.600971 0.340846 0.0
H_ H_ 0.177503 0.561581 0.299208 0.0
H_ H_ 0.259911 0.723716 0.405138 0.0
H_ H_ 0.207852 0.706729 0.360616 0.0
H_ H_ 0.0623398 0.673851 0.367772 0.0
H_ H_ 0.215343 0.598375 0.218111 0.0
H_ H_ 0.240116 0.648125 0.250213 0.0
H_ H_ 0.304707 0.574977 0.313461 0.0
H_ H_ 0.30043 0.529651 0.2732 0.0
H_ H_ 0.299321 0.909872 0.266846 0.0
H_ H_ 0.999621 0.871897 0.310617 0.0
H_ H_ 0.158805 0.932776 0.314338 0.0
H_ H_ 0.173763 0.742376 0.405381 0.0
H_ H_ 0.21586 0.785206 0.368646 0.0
H_ H_ 0.155766 0.868451 0.424704 0.0
H_ H_ 0.116694 0.823609 0.458851 0.0
H_ H_ 0.262894 0.976531 0.344594 0.0
H_ H_ 0.219226 0.974879 0.396412 0.0
H_ H_ 0.0607898 0.92503 0.381292 0.0
H_ H_ 0.220938 0.84481 0.0312093 0.0
H_ H_ 0.246385 0.902029 0.505141 0.0
H_ H_ 0.303966 0.834176 0.435665 0.0
H_ H_ 0.290286 0.782989 0.471872 0.0
H_ H_ 0.0298824 0.843347 0.017056 0.0
H_ H_ 0.333583 0.878151 0.0604678 0.0
H_ H_ 0.170541 0.8179 0.064355 0.0
H_ H_ 0.177215 0.517214 0.148441 0.0
H_ H_ 0.130284 0.967968 0.11467 0.0
H_ H_ 0.194815 0.884214 0.164358 0.0
H_ H_ 0.227973 0.928006 0.202413 0.0
H_ H_ 0.0707632 0.771482 0.0950963 0.0
H_ H_ 0.123132 0.791729 0.140077 0.0
H_ H_ 0.269553 0.819648 0.134008 0.0
H_ H_ 0.107135 0.898582 0.284904 0.0
H_ H_ 0.0843977 0.84755 0.249827 0.0
H_ H_ 0.0167003 0.919508 0.188913 0.0
H_ H_ 0.052591 0.971604 0.221651 0.0
C_ C_ 0.103862 0.541919 0.230284 0.0
C_ C_ 0.0957297 0.573191 0.209952 0.0
C_ C_ 0.0480139 0.590576 0.212206 0.0
C_ C_ 0.0387001 0.618444 0.19304 0.0
C_ C_ 0.0792781 0.632303 0.173948 0.0
C_ C_ 0.12659 0.616253 0.172559 0.0
C_ C_ 0.13312 0.585318 0.188511 0.0
C_ C_ 0.145496 0.622126 0.143617 0.0
C_ C_ 0.0732289 0.648536 0.145654 0.0
C_ C_ 0.173349 0.732567 0.0960246 0.0
C_ C_ 0.150433 0.707306 0.116244 0.0
C_ C_ 0.136858 0.672273 0.107567 0.0
C_ C_ 0.158735 0.660719 0.0808405 0.0
C_ C_ 0.190448 0.685935 0.0626113 0.0
C_ C_ 0.301344 0.538458 0.166747 0.0
C_ C_ 0.330483 0.541713 0.138386 0.0
C_ C_ 0.0548154 0.538298 0.138376 0.0
C_ C_ 0.0825968 0.543508 0.110546 0.0
C_ C_ 0.0558817 0.555912 0.0856699 0.0
C_ C_ 0.336228 0.566297 0.0874953 0.0
C_ C_ 0.306893 0.559958 0.115002 0.0
C_ C_ 0.0806508 0.578517 0.0642243 0.0
C_ C_ 0.330716 0.59428 0.0680253 0.0
C_ C_ 0.0982019 0.656312 0.487647 0.0
C_ C_ 0.0808868 0.626491 0.00656276 0.0
C_ C_ 0.0583062 0.631714 0.0344035 0.0
C_ C_ 0.0383567 0.664559 0.0407484 0.0
C_ C_ 0.0566501 0.693103 0.0228252 0.0
C_ C_ 0.225595 0.710548 0.48009 0.0
C_ C_ 0.233382 0.676193 0.46552 0.0
C_ C_ 0.265835 0.651587 0.477074 0.0
C_ C_ 0.274154 0.620152 0.461284 0.0
C_ C_ 0.25445 0.615516 0.431715 0.0
C_ C_ 0.219508 0.639573 0.421251 0.0
C_ C_ 0.206025 0.668371 0.438142 0.0
C_ C_ 0.186025 0.621117 0.40156 0.0
C_ C_ 0.239343 0.582932 0.417886 0.0
C_ C_ 0.14182 0.508129 0.356172 0.0
C_ C_ 0.154756 0.531504 0.380205 0.0
C_ C_ 0.181792 0.563997 0.375137 0.0
C_ C_ 0.190578 0.575161 0.345462 0.0
C_ C_ 0.169028 0.553548 0.321708 0.0
C_ C_ 0.0321126 0.708799 0.418551 0.0
C_ C_ 0.00233439 0.703428 0.389697 0.0
C_ C_ 0.281239 0.712702 0.387833 0.0
C_ C_ 0.252187 0.704127 0.3613 0.0
C_ C_ 0.277839 0.690569 0.336758 0.0
C_ C_ 0.996441 0.682118 0.338166 0.0
C_ C_ 0.0261683 0.687318 0.36475 0.0
C_ C_ 0.252579 0.668168 0.314859 0.0
C_ C_ 0.00132499 0.655806 0.317514 0.0
C_ C_ 0.23472 0.59319 0.239321 0.0
C_ C_ 0.245454 0.621427 0.258945 0.0
C_ C_ 0.275075 0.616013 0.284692 0.0
C_ C_ 0.290608 0.581984 0.290541 0.0
C_ C_ 0.285253 0.55597 0.268694 0.0
C_ C_ 0.22675 0.957889 0.268923 0.0
C_ C_ 0.232144 0.928515 0.289275 0.0
C_ C_ 0.277494 0.909164 0.287458 0.0
C_ C_ 0.290783 0.888021 0.312432 0.0
C_ C_ 0.262339 0.889823 0.339082 0.0
C_ C_ 0.212359 0.903467 0.338669 0.0
C_ C_ 0.196808 0.923653 0.313726 0.0
C_ C_ 0.179188 0.883098 0.358708 0.0
C_ C_ 0.258831 0.861857 0.359597 0.0
C_ C_ 0.169508 0.770178 0.407669 0.0
C_ C_ 0.19164 0.794172 0.38761 0.0
C_ C_ 0.189449 0.830911 0.393346 0.0
C_ C_ 0.163618 0.840843 0.420361 0.0
C_ C_ 0.140222 0.814889 0.438841 0.0
C_ C_ 0.026205 0.960125 0.330382 0.0
C_ C_ -0.002210999999999963 0.953718 0.359033 0.0
C_ C_ 0.281933 0.965938 0.363996 0.0
C_ C_ 0.25655 0.963366 0.392113 0.0
C_ C_ 0.282537 0.946994 0.416213 0.0
C_ C_ 0.996034 0.932345 0.411463 0.0
C_ C_ 0.0231443 0.937258 0.383251 0.0
C_ C_ 0.258183 0.926629 0.437929 0.0
C_ C_ 1.00078959 0.903647 0.4307 0.0
C_ C_ 0.234004 0.843357 0.00974348 0.0
C_ C_ 0.25289 0.875657 0.495518 0.0
C_ C_ 0.273855 0.871088 0.466193 0.0
C_ C_ 0.284807 0.836274 0.457255 0.0
C_ C_ 0.275455 0.80799 0.476303 0.0
C_ C_ 0.104969 0.793243 0.0216174 0.0
C_ C_ 0.0959479 0.822946 0.0410047 0.0
C_ C_ 0.0516679 0.841939 0.0384094 0.0
C_ C_ 0.036476 0.864203 0.0627523 0.0
C_ C_ 0.0713378 0.868839 0.086632 0.0
C_ C_ 0.117974 0.850676 0.0884301 0.0
C_ C_ 0.132952 0.830169 0.063903 0.0
C_ C_ 0.153497 0.870185 0.106645 0.0
C_ C_ 0.0818401 0.899194 0.104837 0.0
C_ C_ 0.162649 0.983295 0.158787 0.0
C_ C_ 0.147715 0.959625 0.135029 0.0
C_ C_ 0.153809 0.92422 0.138702 0.0
C_ C_ 0.18011 0.911542 0.16437 0.0
C_ C_ 0.203648 0.936709 0.184293 0.0
C_ C_ 0.302635 0.78796 0.0827407 0.0
C_ C_ 0.33277 0.794606 0.110382 0.0
C_ C_ 0.0519836 0.784269 0.113545 0.0
C_ C_ 0.0795959 0.791641 0.140701 0.0
C_ C_ 0.0551043 0.806917 0.164867 0.0
C_ C_ 0.336557 0.817949 0.161191 0.0
C_ C_ 0.308592 0.811187 0.135533 0.0
C_ C_ 0.0805179 0.828228 0.185627 0.0
C_ C_ 0.335022 0.84789 0.178736 0.0
C_ C_ 0.0937171 0.904549 0.26234 0.0
C_ C_ 0.0795236 0.875057 0.243946 0.0
C_ C_ 0.0557435 0.880636 0.216454 0.0
C_ C_ 0.0425922 0.916458 0.209004 0.0
C_ C_ 0.0591418 0.944639 0.227595 0.0
N_ N_ 0.18744 0.721785 0.0679929 0.0
N_ N_ 0.115985 0.644672 0.128068 0.0
N_ N_ 0.0451447 0.6017 0.0530647 0.0
N_ N_ 0.083353 0.688207 0.996517 0.0
N_ N_ 0.149585 0.520213 0.327558 0.0
N_ N_ 0.197046 0.587046 0.399522 0.0
N_ N_ 0.287619 0.644596 0.305618 0.0
N_ N_ 0.252447 0.560049 0.244534 0.0
N_ N_ 0.145322 0.780144 0.43299 0.0
N_ N_ 0.208142 0.857795 0.37119 0.0
N_ N_ 0.288198 0.900677 0.447076 0.0
N_ N_ 0.248307 0.81238 0.502357 0.0
N_ N_ 0.194209 0.971654 0.18172 0.0
N_ N_ 0.131186 0.899544 0.117153 0.0
N_ N_ 0.0456972 0.852368 0.19525 0.0
N_ N_ 0.0872825 0.938524 0.252899 0.0
O_ O_ 0.130222 0.516255 0.220694 0.0
O_ O_ 0.091796 0.542501 0.25784 0.0
O_ O_ 0.0416323 0.673901 0.140876 0.0
O_ O_ 0.196435 0.617571 0.136859 0.0
O_ O_ 0.262208 0.556435 0.172802 0.0
O_ O_ 0.306666 0.509496 0.182628 0.0
O_ O_ 0.292093 0.617581 0.0691569 0.0
O_ O_ 0.121978 0.568302 0.0481461 0.0
O_ O_ 0.20328 0.734429 0.466392 0.0
O_ O_ 0.254964 0.71572 0.0021999999999999797 0.0
O_ O_ 0.243521 0.552448 0.431006 0.0
O_ O_ 0.137394 0.631739 0.397335 0.0
O_ O_ 0.077834 0.69804 0.421786 0.0
O_ O_ 0.0202119 0.733191 0.435746 0.0
O_ O_ 0.039133 0.632653 0.318686 0.0
O_ O_ 0.200252 0.659927 0.314396 0.0
O_ O_ 0.195577 0.982266 0.275349 0.0
O_ O_ 0.260467 0.964588 0.248405 0.0
O_ O_ 0.2885 0.83537 0.35651 0.0
O_ O_ 0.126806 0.876284 0.35179 0.0
O_ O_ 0.0692339 0.946129 0.325421 0.0
O_ O_ 0.0156514 0.986394 0.314132 0.0
O_ O_ 0.0363228 0.880469 0.428372 0.0
O_ O_ 0.204918 0.92388 0.44113 0.0
O_ O_ 0.129478 0.766933 0.0316654 0.0
O_ O_ 0.0787064 0.783379 0.499184 0.0
O_ O_ 0.0434496 0.918731 0.115324 0.0
O_ O_ 0.206343 0.869682 0.103949 0.0
O_ O_ 0.260623 0.804049 0.0776624 0.0
O_ O_ 0.311282 0.761761 0.0649666 0.0
O_ O_ 0.292573 0.863475 0.184579 0.0
O_ O_ 0.118866 0.817159 0.202229 0.0
Cd Cd 0.23224 0.518163 0.7148 0.0
Cd Cd 0.104945 0.738889 0.965526 0.0
Cd Cd 0.105903 0.989676 0.788524 0.0
Cd Cd 0.235832 0.76556 0.536203 0.0
H_ H_ 0.0172062 0.578462 0.724599 0.0
H_ H_ 0.332127 0.62348 0.685722 0.0
H_ H_ 0.164948 0.565432 0.678103 0.0
H_ H_ 0.175605 0.763398 0.604194 0.0
H_ H_ 0.135028 0.721187 0.637423 0.0
H_ H_ 0.155461 0.637066 0.574772 0.0
H_ H_ 0.199555 0.678767 0.540895 0.0
H_ H_ 0.0679377 0.516833 0.652118 0.0
H_ H_ 0.118751 0.531304 0.605267 0.0
H_ H_ 0.270355 0.574942 0.619121 0.0
H_ H_ 0.103219 0.650178 0.962673 0.0
H_ H_ 0.0906586 0.600655 0.499541 0.0
H_ H_ 0.0282684 0.672077 0.564182 0.0
H_ H_ 0.0480368 0.7224 0.528074 0.0
H_ H_ 0.308305 0.661444 0.980108 0.0
H_ H_ 0.99594808 0.617516 0.943573 0.0
H_ H_ 0.169539 0.68865 0.930385 0.0
H_ H_ 0.143832 0.985376 0.854569 0.0
H_ H_ 0.198343 0.53937 0.884789 0.0
H_ H_ 0.168362 0.622801 0.822871 0.0
H_ H_ 0.133504 0.575031 0.785082 0.0
H_ H_ 0.271001 0.738456 0.899742 0.0
H_ H_ 0.216178 0.723464 0.855838 0.0
H_ H_ 0.0619308 0.673834 0.869483 0.0
H_ H_ 0.219905 0.599755 0.715206 0.0
H_ H_ 0.241797 0.652524 0.744898 0.0
H_ H_ 0.300955 0.581655 0.813173 0.0
H_ H_ 0.282048 0.532858 0.778101 0.0
H_ H_ 0.315661 0.918882 0.772614 0.0
H_ H_ 1.00081 0.877999 0.815409 0.0
H_ H_ 0.164428 0.93238 0.820435 0.0
H_ H_ 0.186094 0.744665 0.912891 0.0
H_ H_ 0.224243 0.787973 0.874456 0.0
H_ H_ 0.146436 0.868959 0.919358 0.0
H_ H_ 0.103172 0.825066 0.952167 0.0
H_ H_ 0.257323 0.9728 0.842783 0.0
H_ H_ 0.214699 0.970409 0.893757 0.0
H_ H_ 0.0638748 0.930269 0.881005 0.0
H_ H_ 0.230119 0.851166 0.536135 0.0
H_ H_ 0.224363 0.897301 0.99569139 0.0
H_ H_ 0.297652 0.833169 0.932641 0.0
H_ H_ 0.279064 0.779012 0.965744 0.0
H_ H_ 0.0199507 0.831655 0.522553 0.0
H_ H_ 0.340147 0.88338 0.555115 0.0
H_ H_ 0.174943 0.820204 0.565808 0.0
H_ H_ 0.187196 0.516326 0.644292 0.0
H_ H_ 0.112017 0.958418 0.62304 0.0
H_ H_ 0.180895 0.872569 0.67225 0.0
H_ H_ 0.230559 0.92377 0.703556 0.0
H_ H_ 0.0716401 0.777706 0.591616 0.0
H_ H_ 0.123914 0.791285 0.640688 0.0
H_ H_ 0.283016 0.836596 0.6268 0.0
H_ H_ 0.111368 0.902196 0.783432 0.0
H_ H_ 0.0797234 0.849418 0.754013 0.0
H_ H_ 0.0359105 0.920988 0.68348 0.0
H_ H_ 0.0454371 0.969575 0.721381 0.0
C_ C_ 0.106031 0.539709 0.727373 0.0
C_ C_ 0.0939429 0.568301 0.705183 0.0
C_ C_ 0.0467122 0.586167 0.707743 0.0
C_ C_ 0.0336057 0.611361 0.685723 0.0
C_ C_ 0.066279 0.617972 0.660693 0.0
C_ C_ 0.112881 0.601383 0.658077 0.0
C_ C_ 0.128051 0.578415 0.680795 0.0
C_ C_ 0.147253 0.621699 0.639192 0.0
C_ C_ 0.0724335 0.648572 0.64316 0.0
C_ C_ 0.17283 0.73539 0.597377 0.0
C_ C_ 0.145489 0.711245 0.615699 0.0
C_ C_ 0.138467 0.675809 0.60834 0.0
C_ C_ 0.16187 0.664819 0.581289 0.0
C_ C_ 0.188483 0.688691 0.563323 0.0
C_ C_ 0.304614 0.538459 0.668226 0.0
C_ C_ 0.333221 0.546351 0.641477 0.0
C_ C_ 0.0506116 0.532973 0.635723 0.0
C_ C_ 0.078865 0.540093 0.608448 0.0
C_ C_ 0.0521338 0.554806 0.585032 0.0
C_ C_ 0.337026 0.567898 0.589957 0.0
C_ C_ 0.310155 0.564189 0.617476 0.0
C_ C_ 0.0757352 0.576105 0.562593 0.0
C_ C_ 0.333133 0.596258 0.570535 0.0
C_ C_ 0.0915718 0.654224 0.986375 0.0
C_ C_ 0.084471 0.627124 0.506723 0.0
C_ C_ 0.0585934 0.631032 0.534052 0.0
C_ C_ 0.0455872 0.666467 0.541911 0.0
C_ C_ 0.0603891 0.695584 0.523254 0.0
C_ C_ 0.230086 0.710882 0.977556 0.0
C_ C_ 0.236479 0.677765 0.959896 0.0
C_ C_ 0.281451 0.656314 0.962198 0.0
C_ C_ 0.291175 0.629675 0.941546 0.0
C_ C_ 0.252028 0.621585 0.921366 0.0
C_ C_ 0.206984 0.639833 0.919178 0.0
C_ C_ 0.201145 0.670072 0.936464 0.0
C_ C_ 0.183897 0.631962 0.892024 0.0
C_ C_ 0.254686 0.601976 0.895756 0.0
C_ C_ 0.161438 0.522322 0.84358 0.0
C_ C_ 0.189622 0.545721 0.861881 0.0
C_ C_ 0.191173 0.583034 0.855344 0.0
C_ C_ 0.168864 0.594118 0.827566 0.0
C_ C_ 0.146473 0.568579 0.807877 0.0
C_ C_ 0.0320248 0.714853 0.916814 0.0
C_ C_ 0.0009999999999998899 0.704731 0.889726 0.0
C_ C_ 0.2842 0.719143 0.884792 0.0
C_ C_ 0.254704 0.712949 0.858005 0.0
C_ C_ 0.281269 0.697552 0.834122 0.0
C_ C_ 0.996111 0.681825 0.838867 0.0
C_ C_ 0.0246119 0.685845 0.866413 0.0
C_ C_ 0.260219 0.678545 0.810393 0.0
C_ C_ 0.00181556 0.654407 0.818531 0.0
C_ C_ 0.230186 0.597221 0.738812 0.0
C_ C_ 0.245686 0.626524 0.755988 0.0
C_ C_ 0.273604 0.622556 0.783104 0.0
C_ C_ 0.282045 0.587302 0.792522 0.0
C_ C_ 0.269232 0.557718 0.772447 0.0
C_ C_ 0.225095 0.957637 0.771229 0.0
C_ C_ 0.238253 0.929859 0.792691 0.0
C_ C_ 0.286425 0.912036 0.790851 0.0
C_ C_ 0.296048 0.885449 0.811787 0.0
C_ C_ 0.253319 0.871194 0.829651 0.0
C_ C_ 0.205672 0.885203 0.829401 0.0
C_ C_ 0.198927 0.917488 0.814493 0.0
C_ C_ 0.182147 0.876226 0.856495 0.0
C_ C_ 0.258111 0.853578 0.857572 0.0
C_ C_ 0.178197 0.771211 0.913311 0.0
C_ C_ 0.203089 0.795784 0.894024 0.0
C_ C_ 0.190727 0.83144 0.894873 0.0
C_ C_ 0.154406 0.842048 0.917492 0.0
C_ C_ 0.133264 0.817579 0.937496 0.0
C_ C_ 0.0299207 0.966561 0.832857 0.0
C_ C_ 1.00098 0.958876 0.860583 0.0
C_ C_ 0.280312 0.963663 0.86334 0.0
C_ C_ 0.255303 0.961371 0.891417 0.0
C_ C_ 0.28054 0.945046 0.914763 0.0
C_ C_ 0.996182 0.934414 0.911327 0.0
C_ C_ 0.0266621 0.942148 0.884718 0.0
C_ C_ 0.254953 0.924994 0.937144 0.0
C_ C_ 0.0010677 0.905771 0.931381 0.0
C_ C_ 0.241456 0.84587 0.512722 0.0
C_ C_ 0.246355 0.873889 0.991986 0.0
C_ C_ 0.271359 0.86913 0.964534 0.0
C_ C_ 0.274407 0.834653 0.952478 0.0
C_ C_ 0.263361 0.804027 0.971804 0.0
C_ C_ 0.108479 0.791223 0.521581 0.0
C_ C_ 0.0990207 0.822299 0.541461 0.0
C_ C_ 0.0482049 0.839347 0.5396 0.0
C_ C_ 0.0389474 0.867638 0.55884 0.0
C_ C_ 0.0819447 0.880178 0.579179 0.0
C_ C_ 0.130381 0.863775 0.579404 0.0
C_ C_ 0.139461 0.835017 0.561788 0.0
C_ C_ 0.150314 0.869683 0.608757 0.0
C_ C_ 0.0745269 0.894339 0.607754 0.0
C_ C_ 0.158576 0.974149 0.660816 0.0
C_ C_ 0.13417 0.950286 0.642174 0.0
C_ C_ 0.137575 0.913103 0.648181 0.0
C_ C_ 0.174685 0.902123 0.669946 0.0
C_ C_ 0.197936 0.929248 0.688876 0.0
C_ C_ 0.306408 0.789416 0.58195 0.0
C_ C_ 0.333774 0.797 0.608761 0.0
C_ C_ 0.0517679 0.787316 0.612734 0.0
C_ C_ 0.0809769 0.796672 0.638948 0.0
C_ C_ 0.0530583 0.806405 0.664755 0.0
C_ C_ 0.335439 0.818335 0.659868 0.0
C_ C_ 0.311563 0.817352 0.631432 0.0
C_ C_ 0.0762306 0.828418 0.686081 0.0
C_ C_ 0.333318 0.846857 0.679633 0.0
C_ C_ 0.0926047 0.905201 0.762267 0.0
C_ C_ 0.0752903 0.875772 0.745266 0.0
C_ C_ 0.0563316 0.881702 0.716212 0.0
C_ C_ 0.0509121 0.916287 0.706479 0.0
C_ C_ 0.059698 0.943592 0.726515 0.0
N_ N_ 0.189217 0.725597 0.56977 0.0
N_ N_ 0.122306 0.651271 0.630815 0.0
N_ N_ 0.0439961 0.600247 0.553099 0.0
N_ N_ 0.08959 0.690521 0.497539 0.0
N_ N_ 0.14488 0.532696 0.81569 0.0
N_ N_ 0.213943 0.608843 0.877281 0.0
N_ N_ 0.290762 0.651607 0.801182 0.0
N_ N_ 0.239264 0.563371 0.748213 0.0
N_ N_ 0.144533 0.78188 0.934545 0.0
N_ N_ 0.21271 0.856936 0.874573 0.0
N_ N_ 0.287264 0.899723 0.94696 0.0
N_ N_ 0.241093 0.809311 -0.00098272 0.0
N_ N_ 0.187578 0.964051 0.685078 0.0
N_ N_ 0.116418 0.887731 0.625897 0.0
N_ N_ 0.0431703 0.851449 0.697083 0.0
N_ N_ 0.0862291 0.939063 0.752058 0.0
O_ O_ 0.136636 0.516089 0.720819 0.0
O_ O_ 0.0740828 0.534239 0.749052 0.0
O_ O_ 0.0321474 0.663141 0.630221 0.0
O_ O_ 0.198787 0.624155 0.641323 0.0
O_ O_ 0.269528 0.557641 0.677853 0.0
O_ O_ 0.311533 0.509687 0.683117 0.0
O_ O_ 0.287473 0.610368 0.562737 0.0
O_ O_ 0.125338 0.575356 0.555799 0.0
O_ O_ 0.203003 0.735567 0.967333 0.0
O_ O_ 0.256826 0.718912 0.502396 0.0
O_ O_ 0.298363 0.588573 0.885363 0.0
O_ O_ 0.153807 0.65405 0.878355 0.0
O_ O_ 0.0774279 0.704914 0.920758 0.0
O_ O_ 0.0167803 0.737369 0.934809 0.0
O_ O_ 0.0369441 0.630167 0.822339 0.0
O_ O_ 0.209439 0.680088 0.802038 0.0
O_ O_ 0.200941 0.984594 0.781777 0.0
O_ O_ 0.249598 0.960484 0.746421 0.0
O_ O_ 0.300899 0.842811 0.868811 0.0
O_ O_ 0.129283 0.87858 0.861419 0.0
O_ O_ 0.0683862 0.948871 0.82443 0.0
O_ O_ 0.0277563 0.99793 0.821394 0.0
O_ O_ 0.0465656 0.894305 0.939582 0.0
O_ O_ 0.203043 0.924798 0.942923 0.0
O_ O_ 0.139441 0.767168 0.529949 0.0
O_ O_ 0.0777099 0.789163 -0.0028359999999999497 0.0
O_ O_ 0.0271452 0.896243 0.619449 0.0
O_ O_ 0.18986 0.8536 0.619462 0.0
O_ O_ 0.265544 0.805918 0.575128 0.0
O_ O_ 0.312515 0.760443 0.567659 0.0
O_ O_ 0.288782 0.859216 0.688114 0.0
O_ O_ 0.122008 0.820987 0.699921 0.0
Cd Cd 0.563777 0.0118112 0.214642 0.0
Cd Cd 0.430232 0.237776 0.464106 0.0
Cd Cd 0.437251 0.486387 0.287398 0.0
Cd Cd 0.561647 0.258809 0.0347195 0.0
H_ H_ 0.365841 0.0905522 0.232915 0.0
H_ H_ 0.67039 0.131319 0.192289 0.0
H_ H_ 0.489713 0.0516234 0.176584 0.0
H_ H_ 0.519388 0.259242 0.100889 0.0
H_ H_ 0.483911 0.21865 0.140257 0.0
H_ H_ 0.489977 0.131301 0.0805051 0.0
H_ H_ 0.522811 0.170535 0.0396457 0.0
H_ H_ 0.39767 0.01543 0.148607 0.0
H_ H_ 0.442989 0.0216456 0.0985355 0.0
H_ H_ 0.600299 0.0671579 0.115837 0.0
H_ H_ 0.426699 0.148787 0.461268 0.0
H_ H_ 0.423835 0.100451 0.996832 0.0
H_ H_ 0.374983 0.170316 0.06748 0.0
H_ H_ 0.387417 0.220793 0.0331989 0.0
H_ H_ 0.644283 0.17098 0.474243 0.0
H_ H_ 0.262505 0.0880816 0.474818 0.0
H_ H_ 0.493232 0.179639 0.428716 0.0
H_ H_ 0.504825 0.490873 0.345207 0.0
H_ H_ 0.52519 0.0346678 0.385958 0.0
H_ H_ 0.51561 0.117694 0.320145 0.0
H_ H_ 0.467204 0.0742683 0.286508 0.0
H_ H_ 0.604208 0.237113 0.402218 0.0
H_ H_ 0.547268 0.215136 0.358498 0.0
H_ H_ 0.39963 0.179703 0.36693 0.0
H_ H_ 0.549273 0.094837 0.217717 0.0
H_ H_ 0.573262 0.146286 0.249946 0.0
H_ H_ 0.648625 0.0775887 0.312841 0.0
H_ H_ 0.61691 0.0257881 0.282269 0.0
H_ H_ 0.650726 0.420447 0.274346 0.0
H_ H_ 0.296393 0.35109 0.288869 0.0
H_ H_ 0.504261 0.438491 0.318687 0.0
H_ H_ 0.495094 0.24052 0.40184 0.0
H_ H_ 0.536918 0.283449 0.363826 0.0
H_ H_ 0.485146 0.368222 0.421672 0.0
H_ H_ 0.439584 0.322266 0.451094 0.0
H_ H_ 0.598461 0.482572 0.346891 0.0
H_ H_ 0.548552 0.470013 0.393821 0.0
H_ H_ 0.387474 0.414345 0.381872 0.0
H_ H_ 0.54254 0.34667 0.0304216 0.0
H_ H_ 0.576136 0.400933 0.502305 0.0
H_ H_ 0.636267 0.334234 0.435071 0.0
H_ H_ 0.608846 0.279296 0.465924 0.0
H_ H_ 0.36151 0.335042 0.0201741 0.0
H_ H_ 0.667893 0.379374 0.0595953 0.0
H_ H_ 0.501742 0.310036 0.0703193 0.0
H_ H_ 0.503712 0.00633324 0.149323 0.0
H_ H_ 0.468575 0.462769 0.113794 0.0
H_ H_ 0.492052 0.381171 0.176515 0.0
H_ H_ 0.526268 0.425312 0.214072 0.0
H_ H_ 0.407479 0.272948 0.101454 0.0
H_ H_ 0.448689 0.276917 0.153091 0.0
H_ H_ 0.604613 0.321177 0.130775 0.0
H_ H_ 0.433257 0.400644 0.288876 0.0
H_ H_ 0.409986 0.352638 0.258637 0.0
H_ H_ 0.371346 0.423312 0.187503 0.0
H_ H_ 0.391038 0.473659 0.221863 0.0
C_ C_ 0.435905 0.035981 0.224995 0.0
C_ C_ 0.42912 0.0668262 0.206149 0.0
C_ C_ 0.387075 0.0905701 0.211268 0.0
C_ C_ 0.369791 0.112495 0.188415 0.0
C_ C_ 0.404303 0.117964 0.162905 0.0
C_ C_ 0.445302 0.0960784 0.158328 0.0
C_ C_ 0.459559 0.0708413 0.180115 0.0
C_ C_ 0.482755 0.114915 0.141651 0.0
C_ C_ 0.416213 0.149407 0.149126 0.0
C_ C_ 0.512205 0.230605 0.0951784 0.0
C_ C_ 0.49589 0.208186 0.118971 0.0
C_ C_ 0.485211 0.172199 0.113584 0.0
C_ C_ 0.497474 0.158668 0.0856217 0.0
C_ C_ 0.512893 0.181274 0.0623964 0.0
C_ C_ 0.634658 0.0373465 0.168335 0.0
C_ C_ 0.66423 0.0425718 0.138834 0.0
C_ C_ 0.378169 0.0285513 0.130288 0.0
C_ C_ 0.403991 0.0333865 0.102639 0.0
C_ C_ 0.3772 0.0506271 0.079566 0.0
C_ C_ 0.671888 0.0680188 0.0890641 0.0
C_ C_ 0.64051 0.0590952 0.114624 0.0
C_ C_ 0.405779 0.0748091 0.0598607 0.0
C_ C_ 0.666229 0.096533 0.0693976 0.0
C_ C_ 0.414109 0.154345 0.484564 0.0
C_ C_ 0.416052 0.126997 0.00468033 0.0
C_ C_ 0.391686 0.130984 0.0328484 0.0
C_ C_ 0.385363 0.16644 0.0441295 0.0
C_ C_ 0.39865 0.195359 0.0255577 0.0
C_ C_ 0.552854 0.207286 0.475934 0.0
C_ C_ 0.562768 0.17562 0.457631 0.0
C_ C_ 0.611805 0.15869 0.461026 0.0
C_ C_ 0.62189 0.130788 0.441945 0.0
C_ C_ 0.58071 0.115585 0.423625 0.0
C_ C_ 0.532258 0.131785 0.42132 0.0
C_ C_ 0.525538 0.163512 0.435574 0.0
C_ C_ 0.513568 0.125436 0.392411 0.0
C_ C_ 0.588326 0.0983995 0.396297 0.0
C_ C_ 0.497401 0.0183464 0.342246 0.0
C_ C_ 0.51638 0.0435924 0.362739 0.0
C_ C_ 0.531298 0.0773056 0.354241 0.0
C_ C_ 0.512479 0.0887906 0.326642 0.0
C_ C_ 0.485175 0.0643342 0.307618 0.0
C_ C_ 0.360817 0.212202 0.415772 0.0
C_ C_ 0.33354 0.203745 0.387549 0.0
C_ C_ 0.617323 0.218349 0.385884 0.0
C_ C_ 0.588049 0.209155 0.359766 0.0
C_ C_ 0.612722 0.194211 0.335216 0.0
C_ C_ 0.336556 0.185918 0.335624 0.0
C_ C_ 0.360533 0.189152 0.363223 0.0
C_ C_ 0.586879 0.17036 0.314408 0.0
C_ C_ 0.343471 0.158658 0.314887 0.0
C_ C_ 0.565587 0.0908278 0.239755 0.0
C_ C_ 0.582394 0.120023 0.256464 0.0
C_ C_ 0.611731 0.116518 0.283578 0.0
C_ C_ 0.62727 0.0827635 0.290857 0.0
C_ C_ 0.610309 0.0530087 0.273398 0.0
C_ C_ 0.566988 0.460666 0.270669 0.0
C_ C_ 0.574427 0.431341 0.291379 0.0
C_ C_ 0.61812 0.409715 0.287509 0.0
C_ C_ 0.627256 0.382991 0.30935 0.0
C_ C_ 0.58582 0.370998 0.328139 0.0
C_ C_ 0.53986 0.388819 0.328679 0.0
C_ C_ 0.537083 0.422451 0.313516 0.0
C_ C_ 0.513132 0.378712 0.354523 0.0
C_ C_ 0.586634 0.352015 0.355022 0.0
C_ C_ 0.500492 0.268521 0.406428 0.0
C_ C_ 0.521205 0.293931 0.3851 0.0
C_ C_ 0.516901 0.329645 0.391317 0.0
C_ C_ 0.490526 0.34036 0.417102 0.0
C_ C_ 0.466774 0.314615 0.435147 0.0
C_ C_ 0.372039 0.463182 0.336765 0.0
C_ C_ 0.345777 0.460102 0.366646 0.0
C_ C_ 0.617383 0.467985 0.364135 0.0
C_ C_ 0.58925 0.46071 0.390918 0.0
C_ C_ 0.614007 0.444977 0.415228 0.0
C_ C_ 0.348344 0.436265 0.418037 0.0
C_ C_ 0.36672 0.437306 0.388821 0.0
C_ C_ 0.590472 0.426409 0.438714 0.0
C_ C_ 0.349396 0.406656 0.438097 0.0
C_ C_ 0.561687 0.341837 0.0103036 0.0
C_ C_ 0.581182 0.374436 0.493359 0.0
C_ C_ 0.606161 0.370851 0.465237 0.0
C_ C_ 0.613981 0.336479 0.454979 0.0
C_ C_ 0.596691 0.305961 0.472219 0.0
C_ C_ 0.439503 0.288949 0.0224778 0.0
C_ C_ 0.430729 0.318928 0.0428348 0.0
C_ C_ 0.386137 0.339547 0.0393784 0.0
C_ C_ 0.381513 0.37076 0.0573511 0.0
C_ C_ 0.423123 0.380988 0.0761834 0.0
C_ C_ 0.46502 0.359907 0.0815037 0.0
C_ C_ 0.469158 0.327768 0.0657387 0.0
C_ C_ 0.484436 0.367667 0.109783 0.0
C_ C_ 0.416767 0.400581 0.101224 0.0
C_ C_ 0.499067 0.47951 0.157023 0.0
C_ C_ 0.480485 0.453535 0.135648 0.0
C_ C_ 0.478502 0.417818 0.142061 0.0
C_ C_ 0.494238 0.407672 0.171034 0.0
C_ C_ 0.519045 0.432758 0.190865 0.0
C_ C_ 0.633665 0.28387 0.0830533 0.0
C_ C_ 0.664256 0.293516 0.11035 0.0
C_ C_ 0.384545 0.281951 0.120732 0.0
C_ C_ 0.408042 0.285377 0.149161 0.0
C_ C_ 0.382881 0.303869 0.171763 0.0
C_ C_ 0.669921 0.316939 0.160846 0.0
C_ C_ 0.641085 0.311002 0.133463 0.0
C_ C_ 0.408564 0.326141 0.19324 0.0
C_ C_ 0.666519 0.346111 0.180195 0.0
C_ C_ 0.427081 0.405985 0.265084 0.0
C_ C_ 0.412017 0.377731 0.247564 0.0
C_ C_ 0.393764 0.382221 0.218654 0.0
C_ C_ 0.388188 0.418128 0.208403 0.0
C_ C_ 0.401166 0.44631 0.228009 0.0
N_ N_ 0.518686 0.217395 0.06668 0.0
N_ N_ 0.465849 0.148846 0.136748 0.0
N_ N_ 0.375081 0.0996656 0.0499399 0.0
N_ N_ 0.42002 0.190575 0.996837 0.0
N_ N_ 0.48149 0.029019 0.314776 0.0
N_ N_ 0.54772 0.104177 0.377153 0.0
N_ N_ 0.622444 0.147031 0.304158 0.0
N_ N_ 0.579633 0.0573047 0.248295 0.0
N_ N_ 0.474934 0.279799 0.430788 0.0
N_ N_ 0.542265 0.356541 0.371673 0.0
N_ N_ 0.621354 0.401374 0.447664 0.0
N_ N_ 0.573352 0.310703 0.499956 0.0
N_ N_ 0.520026 0.468106 0.183475 0.0
N_ N_ 0.455225 0.392788 0.122135 0.0
N_ N_ 0.376823 0.35207 0.200882 0.0
N_ N_ 0.421349 0.440268 0.254857 0.0
O_ O_ 0.467949 0.0129824 0.218335 0.0
O_ O_ 0.406056 0.0303058 0.247976 0.0
O_ O_ 0.383128 0.172929 0.142218 0.0
O_ O_ 0.533679 0.110234 0.144873 0.0
O_ O_ 0.592191 0.0512587 0.172695 0.0
O_ O_ 0.646014 0.010723 0.184796 0.0
O_ O_ 0.620451 0.104648 0.0589903 0.0
O_ O_ 0.44707 0.0657441 0.0444282 0.0
O_ O_ 0.524489 0.231266 0.465845 0.0
O_ O_ 0.587262 0.214192 -0.00156688 0.0
O_ O_ 0.635614 0.0910928 0.386806 0.0
O_ O_ 0.46266 0.125012 0.385304 0.0
O_ O_ 0.403363 0.198169 0.422324 0.0
O_ O_ 0.348975 0.239535 0.431748 0.0
O_ O_ 0.392032 0.150289 0.305135 0.0
O_ O_ 0.552968 0.181543 0.295336 0.0
O_ O_ 0.536777 0.485165 0.278188 0.0
O_ O_ 0.599698 0.46729 0.249378 0.0
O_ O_ 0.629125 0.336956 0.365377 0.0
O_ O_ 0.475031 0.397659 0.366649 0.0
O_ O_ 0.417094 0.451735 0.332236 0.0
O_ O_ 0.355156 0.483586 0.31664 0.0
O_ O_ 0.375954 0.379484 0.430314 0.0
O_ O_ 0.537691 0.42209 0.441717 0.0
O_ O_ 0.462361 0.262157 0.0331583 0.0
O_ O_ 0.406663 0.286489 0.496258 0.0
O_ O_ 0.369746 0.409381 0.111065 0.0
O_ O_ 0.537083 0.36703 0.115976 0.0
O_ O_ 0.592942 0.300962 0.0757237 0.0
O_ O_ 0.644271 0.25577 0.0670496 0.0
O_ O_ 0.622729 0.362853 0.186178 0.0
O_ O_ 0.443221 0.314834 0.21264 0.0
Cd Cd 0.568274 0.00946782 0.715169 0.0
Cd Cd 0.4351 0.238936 0.963346 0.0
Cd Cd 0.439241 0.487948 0.785727 0.0
Cd Cd 0.563704 0.262149 0.533685 0.0
H_ H_ 0.413498 0.106079 0.747351 0.0
H_ H_ 0.666003 0.123208 0.685721 0.0
H_ H_ 0.487098 0.0582694 0.669794 0.0
H_ H_ 0.449007 0.250842 0.573819 0.0
H_ H_ 0.418563 0.207607 0.613484 0.0
H_ H_ 0.565607 0.160762 0.60794 0.0
H_ H_ 0.576518 0.18914 0.55707 0.0
H_ H_ 0.403698 0.0207245 0.653981 0.0
H_ H_ 0.447248 0.0293207 0.604882 0.0
H_ H_ 0.605402 0.0752248 0.619138 0.0
H_ H_ 0.446215 0.152951 0.964828 0.0
H_ H_ 0.406766 0.0990821 0.495486 0.0
H_ H_ 0.370222 0.170131 0.565088 0.0
H_ H_ 0.386028 0.220702 0.531853 0.0
H_ H_ 0.641689 0.16508 0.977178 0.0
H_ H_ 0.287813 0.0948952 0.972281 0.0
H_ H_ 0.502094 0.182018 0.928022 0.0
H_ H_ 0.495932 0.491056 0.849658 0.0
H_ H_ 0.547807 0.0336966 0.880075 0.0
H_ H_ 0.503173 0.118415 0.821133 0.0
H_ H_ 0.475125 0.071074 0.783882 0.0
H_ H_ 0.601853 0.235133 0.90224 0.0
H_ H_ 0.549717 0.221554 0.854157 0.0
H_ H_ 0.396213 0.169902 0.868386 0.0
H_ H_ 0.556243 0.0966593 0.716324 0.0
H_ H_ 0.578582 0.15006 0.748487 0.0
H_ H_ 0.645815 0.0800551 0.812677 0.0
H_ H_ 0.620104 0.029077 0.781941 0.0
H_ H_ 0.653052 0.42067 0.774525 0.0
H_ H_ 0.198781 0.34075 0.76777 0.0
H_ H_ 0.482991 0.412743 0.795696 0.0
H_ H_ 0.508654 0.241171 0.904805 0.0
H_ H_ 0.544277 0.283358 0.86484 0.0
H_ H_ 0.479655 0.369119 0.916114 0.0
H_ H_ 0.441829 0.32502 0.951754 0.0
H_ H_ 0.59911 0.481105 0.846261 0.0
H_ H_ 0.548199 0.467397 0.893312 0.0
H_ H_ 0.388287 0.420888 0.874311 0.0
H_ H_ 0.560748 0.348715 0.534093 0.0
H_ H_ 0.563552 0.39654 0.996817 0.0
H_ H_ 0.651102 0.331204 0.94056 0.0
H_ H_ 0.622693 0.279556 0.971229 0.0
H_ H_ 0.427684 0.35759 0.492964 0.0
H_ H_ 0.666365 0.374348 0.563429 0.0
H_ H_ 0.483506 0.303984 0.569807 0.0
H_ H_ 0.501898 0.00856527 0.653008 0.0
H_ H_ 0.469345 0.468943 0.61265 0.0
H_ H_ 0.568127 0.391077 0.649793 0.0
H_ H_ 0.584912 0.429725 0.693947 0.0
H_ H_ 0.364335 0.249599 0.614211 0.0
H_ H_ 0.415474 0.267675 0.657122 0.0
H_ H_ 0.607587 0.331235 0.629014 0.0
H_ H_ 0.347785 0.425695 0.774569 0.0
H_ H_ 0.320915 0.378112 0.735363 0.0
H_ H_ 0.466226 0.402916 0.688815 0.0
H_ H_ 0.48985 0.449908 0.726483 0.0
C_ C_ 0.448091 0.0401384 0.727309 0.0
C_ C_ 0.443373 0.0730208 0.709254 0.0
C_ C_ 0.422035 0.104513 0.72253 0.0
C_ C_ 0.410026 0.134022 0.704873 0.0
C_ C_ 0.42106 0.132387 0.674291 0.0
C_ C_ 0.450304 0.10533 0.663951 0.0
C_ C_ 0.460508 0.0751593 0.679941 0.0
C_ C_ 0.48079 0.120674 0.641081 0.0
C_ C_ 0.431343 0.161962 0.656557 0.0
C_ C_ 0.469704 0.228541 0.580242 0.0
C_ C_ 0.452149 0.204035 0.601445 0.0
C_ C_ 0.484501 0.176515 0.609929 0.0
C_ C_ 0.535114 0.174686 0.597133 0.0
C_ C_ 0.546763 0.195639 0.572875 0.0
C_ C_ 0.634197 0.0333799 0.66711 0.0
C_ C_ 0.665478 0.0462545 0.639773 0.0
C_ C_ 0.379337 0.0304372 0.634152 0.0
C_ C_ 0.409404 0.0402758 0.607943 0.0
C_ C_ 0.385413 0.0584278 0.585243 0.0
C_ C_ 0.66874 0.066394 0.588207 0.0
C_ C_ 0.641998 0.0627505 0.616517 0.0
C_ C_ 0.411264 0.0807498 0.56406 0.0
C_ C_ 0.664055 0.0946128 0.568649 0.0
C_ C_ 0.42828 0.156637 0.986343 0.0
C_ C_ 0.401112 0.125685 0.503117 0.0
C_ C_ 0.387256 0.131185 0.532846 0.0
C_ C_ 0.388998 0.16491 0.543825 0.0
C_ C_ 0.398972 0.193984 0.524901 0.0
C_ C_ 0.559955 0.207102 0.974596 0.0
C_ C_ 0.567983 0.174958 0.956729 0.0
C_ C_ 0.614938 0.157849 0.959289 0.0
C_ C_ 0.625411 0.12969 0.939495 0.0
C_ C_ 0.584732 0.114541 0.922017 0.0
C_ C_ 0.540416 0.134121 0.917328 0.0
C_ C_ 0.533564 0.164529 0.933374 0.0
C_ C_ 0.52122 0.126206 0.888453 0.0
C_ C_ 0.594099 0.09952 0.893488 0.0
C_ C_ 0.507303 0.0182987 0.840646 0.0
C_ C_ 0.530943 0.0431367 0.859017 0.0
C_ C_ 0.531699 0.0795277 0.852065 0.0
C_ C_ 0.508445 0.0900126 0.825416 0.0
C_ C_ 0.490276 0.0634625 0.805052 0.0
C_ C_ 0.365188 0.211537 0.915469 0.0
C_ C_ 0.339415 0.206813 0.885876 0.0
C_ C_ 0.618048 0.219232 0.885478 0.0
C_ C_ 0.589264 0.212236 0.858767 0.0
C_ C_ 0.614173 0.195355 0.835688 0.0
C_ C_ 0.341362 0.184521 0.834655 0.0
C_ C_ 0.364591 0.188491 0.86252 0.0
C_ C_ 0.5871 0.173278 0.815207 0.0
C_ C_ 0.346439 0.155347 0.816428 0.0
C_ C_ 0.570464 0.092124 0.738323 0.0
C_ C_ 0.583685 0.122959 0.75631 0.0
C_ C_ 0.608341 0.117845 0.784401 0.0
C_ C_ 0.623578 0.0841615 0.792856 0.0
C_ C_ 0.610422 0.0554043 0.774584 0.0
C_ C_ 0.559267 0.458189 0.769993 0.0
C_ C_ 0.568072 0.424993 0.786388 0.0
C_ C_ 0.618168 0.409357 0.785573 0.0
C_ C_ 0.625935 0.382693 0.808224 0.0
C_ C_ 0.584769 0.365665 0.822424 0.0
C_ C_ 0.534159 0.376136 0.818629 0.0
C_ C_ 0.524487 0.405983 0.799979 0.0
C_ C_ 0.506433 0.367912 0.844147 0.0
C_ C_ 0.585544 0.35263 0.851489 0.0
C_ C_ 0.505426 0.270032 0.90788 0.0
C_ C_ 0.526915 0.293208 0.885344 0.0
C_ C_ 0.519871 0.329672 0.88871 0.0
C_ C_ 0.490417 0.340523 0.913702 0.0
C_ C_ 0.469793 0.316371 0.934873 0.0
C_ C_ 0.368788 0.469557 0.83288 0.0
C_ C_ 0.338677 0.462049 0.861729 0.0
C_ C_ 0.615931 0.466751 0.863845 0.0
C_ C_ 0.586102 0.457706 0.889747 0.0
C_ C_ 0.609799 0.441613 0.913371 0.0
C_ C_ 0.334939 0.431327 0.908149 0.0
C_ C_ 0.358396 0.436976 0.881144 0.0
C_ C_ 0.586139 0.416434 0.933275 0.0
C_ C_ 0.33627 0.398661 0.922187 0.0
C_ C_ 0.573841 0.344932 0.511795 0.0
C_ C_ 0.575561 0.370746 0.990937 0.0
C_ C_ 0.606997 0.366767 0.965667 0.0
C_ C_ 0.624839 0.333743 0.958471 0.0
C_ C_ 0.604574 0.304326 0.975664 0.0
C_ C_ 0.44344 0.291973 0.515281 0.0
C_ C_ 0.451883 0.326529 0.530849 0.0
C_ C_ 0.439286 0.358303 0.51644 0.0
C_ C_ 0.437008 0.388926 0.532427 0.0
C_ C_ 0.449243 0.388719 0.563625 0.0
C_ C_ 0.463596 0.358727 0.578798 0.0
C_ C_ 0.465208 0.325974 0.561491 0.0
C_ C_ 0.498306 0.368177 0.601788 0.0
C_ C_ 0.478986 0.416773 0.577874 0.0
C_ C_ 0.507423 0.480414 0.655092 0.0
C_ C_ 0.493228 0.45895 0.631212 0.0
C_ C_ 0.513457 0.425589 0.628771 0.0
C_ C_ 0.548869 0.415394 0.651123 0.0
C_ C_ 0.556727 0.437387 0.676766 0.0
C_ C_ 0.634662 0.288311 0.582868 0.0
C_ C_ 0.665501 0.295783 0.61049 0.0
C_ C_ 0.374639 0.277518 0.61648 0.0
C_ C_ 0.400618 0.287707 0.643318 0.0
C_ C_ 0.40092 0.323012 0.653074 0.0
C_ C_ 0.668208 0.316765 0.661461 0.0
C_ C_ 0.641771 0.314897 0.63413 0.0
C_ C_ 0.402458 0.332921 0.682763 0.0
C_ C_ 0.664674 0.345418 0.682071 0.0
C_ C_ 0.374939 0.419279 0.756458 0.0
C_ C_ 0.357956 0.394194 0.733478 0.0
C_ C_ 0.390189 0.389568 0.709254 0.0
C_ C_ 0.438443 0.409748 0.705933 0.0
C_ C_ 0.452264 0.435628 0.727731 0.0
N_ N_ 0.516341 0.223577 0.566312 0.0
N_ N_ 0.470077 0.154525 0.636813 0.0
N_ N_ 0.375781 0.102754 0.551769 0.0
N_ N_ 0.414897 0.188484 0.495675 0.0
N_ N_ 0.4867 0.0289656 0.813867 0.0
N_ N_ 0.554769 0.106035 0.873113 0.0
N_ N_ 0.620999 0.14772 0.803876 0.0
N_ N_ 0.581185 0.0588649 0.748791 0.0
N_ N_ 0.476546 0.282312 0.931105 0.0
N_ N_ 0.537847 0.354244 0.865371 0.0
N_ N_ 0.621861 0.397359 0.945972 0.0
N_ N_ 0.576334 0.308497 0.0020999999999999908 0.0
N_ N_ 0.537296 0.47 0.677417 0.0
N_ N_ 0.505761 0.403599 0.602129 0.0
N_ N_ 0.374461 0.362934 0.687784 0.0
N_ N_ 0.420713 0.440595 0.751836 0.0
O_ O_ 0.471082 0.0146571 0.716319 0.0
O_ O_ 0.415227 0.0323748 0.748029 0.0
O_ O_ 0.430114 0.195641 0.666551 0.0
O_ O_ 0.508194 0.102395 0.622226 0.0
O_ O_ 0.589705 0.044659 0.671935 0.0
O_ O_ 0.649772 0.00957407 0.68396 0.0
O_ O_ 0.619294 0.100134 0.555836 0.0
O_ O_ 0.462028 0.0902962 0.565669 0.0
O_ O_ 0.533399 0.232299 0.963477 0.0
O_ O_ 0.581939 0.21449 0.49911 0.0
O_ O_ 0.641731 0.08878 0.885895 0.0
O_ O_ 0.488503 0.146386 0.874177 0.0
O_ O_ 0.406799 0.197083 0.921833 0.0
O_ O_ 0.354293 0.237265 0.931799 0.0
O_ O_ 0.392987 0.145615 0.808359 0.0
O_ O_ 0.545953 0.183427 0.800674 0.0
O_ O_ 0.53574 0.483088 0.782982 0.0
O_ O_ 0.591384 0.46691 0.749367 0.0
O_ O_ 0.629938 0.347432 0.865156 0.0
O_ O_ 0.455019 0.362062 0.845041 0.0
O_ O_ 0.405166 0.449688 0.825982 0.0
O_ O_ 0.360554 0.495783 0.815982 0.0
O_ O_ 0.381286 0.386665 0.931497 0.0
O_ O_ 0.539073 0.421043 0.945468 0.0
O_ O_ 0.472555 0.267309 0.521889 0.0
O_ O_ 0.414082 0.285148 0.99724 0.0
O_ O_ 0.503589 0.442905 0.561794 0.0
O_ O_ 0.506792 0.346437 0.625828 0.0
O_ O_ 0.586173 0.295552 0.580614 0.0
O_ O_ 0.652168 0.26799 0.562048 0.0
O_ O_ 0.621726 0.353388 0.694118 0.0
O_ O_ 0.407498 0.309386 0.70498 0.0
Cd Cd 0.563651 0.510953 0.214406 0.0
Cd Cd 0.436832 0.738693 0.464386 0.0
Cd Cd 0.435657 0.986472 0.286062 0.0
Cd Cd 0.563131 0.76128 0.0356164 0.0
H_ H_ 0.348751 0.57461 0.220936 0.0
H_ H_ 0.665041 0.622223 0.184592 0.0
H_ H_ 0.499397 0.566383 0.180931 0.0
H_ H_ 0.498626 0.758312 0.0972311 0.0
H_ H_ 0.460591 0.714487 0.133983 0.0
H_ H_ 0.495591 0.630333 0.0737301 0.0
H_ H_ 0.537866 0.675199 0.038883 0.0
H_ H_ 0.404536 0.522238 0.155881 0.0
H_ H_ 0.455013 0.532638 0.108086 0.0
H_ H_ 0.605071 0.575711 0.119217 0.0
H_ H_ 0.452194 0.653892 0.469044 0.0
H_ H_ 0.423231 0.601141 0.998962 0.0
H_ H_ 0.36553 0.669552 0.0657237 0.0
H_ H_ 0.383355 0.722828 0.0314566 0.0
H_ H_ 0.64088 0.663692 0.480639 0.0
H_ H_ 0.295399 0.599567 0.471604 0.0
H_ H_ 0.503023 0.685566 0.428743 0.0
H_ H_ 0.488223 0.991193 0.348227 0.0
H_ H_ 0.550421 0.536176 0.381277 0.0
H_ H_ 0.500709 0.620553 0.324444 0.0
H_ H_ 0.462779 0.574717 0.288699 0.0
H_ H_ 0.595799 0.727954 0.405771 0.0
H_ H_ 0.543946 0.706688 0.36072 0.0
H_ H_ 0.39644 0.675938 0.368628 0.0
H_ H_ 0.549168 0.596142 0.218555 0.0
H_ H_ 0.575916 0.649024 0.249101 0.0
H_ H_ 0.628286 0.578056 0.317365 0.0
H_ H_ 0.616739 0.528003 0.280787 0.0
H_ H_ 0.652647 0.925274 0.279904 0.0
H_ H_ 0.327027 0.873401 0.311745 0.0
H_ H_ 0.502213 0.936455 0.321615 0.0
H_ H_ 0.500476 0.741458 0.403026 0.0
H_ H_ 0.551242 0.785242 0.37015 0.0
H_ H_ 0.500863 0.870279 0.425317 0.0
H_ H_ 0.461772 0.824734 0.460761 0.0
H_ H_ 0.598086 0.983385 0.346339 0.0
H_ H_ 0.545738 0.962219 0.39083 0.0
H_ H_ 0.392926 0.922247 0.379913 0.0
H_ H_ 0.560989 0.846976 0.0344468 0.0
H_ H_ 0.576461 0.898964 0.501008 0.0
H_ H_ 0.638607 0.829 0.435082 0.0
H_ H_ 0.623539 0.779124 0.471686 0.0
H_ H_ 0.350184 0.827361 0.0266004 0.0
H_ H_ 0.671368 0.882217 0.0565315 0.0
H_ H_ 0.498892 0.815178 0.0702528 0.0
H_ H_ 0.500395 0.508413 0.152338 0.0
H_ H_ 0.455477 0.964791 0.117439 0.0
H_ H_ 0.499181 0.879969 0.175644 0.0
H_ H_ 0.53885 0.925225 0.2109 0.0
H_ H_ 0.402979 0.77026 0.0952161 0.0
H_ H_ 0.455113 0.786785 0.141306 0.0
H_ H_ 0.604364 0.824876 0.131063 0.0
H_ H_ 0.445366 0.903364 0.28328 0.0
H_ H_ 0.423131 0.850974 0.251095 0.0
H_ H_ 0.360554 0.920902 0.185192 0.0
H_ H_ 0.381605 0.971767 0.219611 0.0
C_ C_ 0.43868 0.539998 0.227052 0.0
C_ C_ 0.42932 0.570771 0.207483 0.0
C_ C_ 0.381853 0.588822 0.210019 0.0
C_ C_ 0.372918 0.617352 0.190542 0.0
C_ C_ 0.414437 0.63051 0.171853 0.0
C_ C_ 0.4608 0.613273 0.169669 0.0
C_ C_ 0.466734 0.581574 0.185219 0.0
C_ C_ 0.481436 0.620719 0.141473 0.0
C_ C_ 0.408884 0.648598 0.145016 0.0
C_ C_ 0.497609 0.730298 0.0920919 0.0
C_ C_ 0.472407 0.705623 0.111814 0.0
C_ C_ 0.471479 0.669032 0.105206 0.0
C_ C_ 0.49651 0.658066 0.0790275 0.0
C_ C_ 0.51981 0.683656 0.0593936 0.0
C_ C_ 0.634705 0.53623 0.167278 0.0
C_ C_ 0.665401 0.544726 0.139664 0.0
C_ C_ 0.384406 0.533773 0.136493 0.0
C_ C_ 0.413353 0.541779 0.110068 0.0
C_ C_ 0.387771 0.557109 0.0859562 0.0
C_ C_ 0.669945 0.568029 0.0889766 0.0
C_ C_ 0.642605 0.56379 0.116129 0.0
C_ C_ 0.413024 0.579403 0.0648629 0.0
C_ C_ 0.666112 0.596676 0.0696897 0.0
C_ C_ 0.430381 0.657225 0.489051 0.0
C_ C_ 0.416542 0.62753 0.00700845 0.0
C_ C_ 0.392127 0.632198 0.0347975 0.0
C_ C_ 0.380366 0.666644 0.0436273 0.0
C_ C_ 0.394123 0.695648 0.0247575 0.0
C_ C_ 0.56132 0.710002 0.477052 0.0
C_ C_ 0.57068 0.679229 0.457483 0.0
C_ C_ 0.618147 0.661178 0.460019 0.0
C_ C_ 0.627082 0.632648 0.440542 0.0
C_ C_ 0.585563 0.61949 0.421853 0.0
C_ C_ 0.5392 0.636727 0.419669 0.0
C_ C_ 0.533266 0.668426 0.435219 0.0
C_ C_ 0.518564 0.629281 0.391473 0.0
C_ C_ 0.591116 0.601402 0.395016 0.0
C_ C_ 0.502391 0.519702 0.342092 0.0
C_ C_ 0.527593 0.544377 0.361814 0.0
C_ C_ 0.528521 0.580968 0.355206 0.0
C_ C_ 0.50349 0.591934 0.329027 0.0
C_ C_ 0.48019 0.566344 0.309394 0.0
C_ C_ 0.365295 0.71377 0.417278 0.0
C_ C_ 0.334599 0.705274 0.389664 0.0
C_ C_ 0.615594 0.716227 0.386493 0.0
C_ C_ 0.586647 0.708221 0.360068 0.0
C_ C_ 0.612229 0.692891 0.335956 0.0
C_ C_ 0.330055 0.681971 0.338977 0.0
C_ C_ 0.357395 0.68621 0.366129 0.0
C_ C_ 0.586976 0.670597 0.314863 0.0
C_ C_ 0.333888 0.653324 0.31969 0.0
C_ C_ 0.569619 0.592775 0.239051 0.0
C_ C_ 0.583458 0.62247 0.257008 0.0
C_ C_ 0.607873 0.617802 0.284798 0.0
C_ C_ 0.619634 0.583356 0.293627 0.0
C_ C_ 0.605877 0.554352 0.274758 0.0
C_ C_ 0.56132 0.960002 0.272948 0.0
C_ C_ 0.57068 0.929229 0.292517 0.0
C_ C_ 0.618147 0.911178 0.289981 0.0
C_ C_ 0.627082 0.882648 0.309458 0.0
C_ C_ 0.585563 0.86949 0.328147 0.0
C_ C_ 0.5392 0.886727 0.330331 0.0
C_ C_ 0.533266 0.918426 0.314781 0.0
C_ C_ 0.518564 0.879281 0.358527 0.0
C_ C_ 0.591116 0.851402 0.354984 0.0
C_ C_ 0.502391 0.769702 0.407908 0.0
C_ C_ 0.527593 0.794377 0.388186 0.0
C_ C_ 0.528521 0.830968 0.394794 0.0
C_ C_ 0.50349 0.841934 0.420973 0.0
C_ C_ 0.48019 0.816344 0.440606 0.0
C_ C_ 0.365295 0.96377 0.332722 0.0
C_ C_ 0.334599 0.955274 0.360336 0.0
C_ C_ 0.615594 0.966227 0.363507 0.0
C_ C_ 0.586647 0.958221 0.389932 0.0
C_ C_ 0.612229 0.942891 0.414044 0.0
C_ C_ 0.330055 0.931971 0.411023 0.0
C_ C_ 0.357395 0.93621 0.383871 0.0
C_ C_ 0.586976 0.920597 0.435137 0.0
C_ C_ 0.333888 0.903324 0.43031 0.0
C_ C_ 0.569619 0.842775 0.010949 0.0
C_ C_ 0.583458 0.87247 0.492992 0.0
C_ C_ 0.607873 0.867802 0.465202 0.0
C_ C_ 0.619634 0.833356 0.456373 0.0
C_ C_ 0.605877 0.804352 0.475242 0.0
C_ C_ 0.43868 0.789998 0.0229477 0.0
C_ C_ 0.42932 0.820771 0.0425173 0.0
C_ C_ 0.381853 0.838822 0.0399812 0.0
C_ C_ 0.372918 0.867352 0.0594584 0.0
C_ C_ 0.414437 0.88051 0.0781469 0.0
C_ C_ 0.4608 0.863273 0.0803307 0.0
C_ C_ 0.466734 0.831574 0.0647812 0.0
C_ C_ 0.481436 0.870719 0.108527 0.0
C_ C_ 0.408884 0.898598 0.104984 0.0
C_ C_ 0.497609 0.980298 0.157908 0.0
C_ C_ 0.472407 0.955623 0.138186 0.0
C_ C_ 0.471479 0.919032 0.144794 0.0
C_ C_ 0.49651 0.908066 0.170973 0.0
C_ C_ 0.51981 0.933656 0.190606 0.0
C_ C_ 0.634705 0.78623 0.0827219 0.0
C_ C_ 0.665401 0.794726 0.110336 0.0
C_ C_ 0.384406 0.783773 0.113507 0.0
C_ C_ 0.413353 0.791779 0.139932 0.0
C_ C_ 0.387771 0.807109 0.164044 0.0
C_ C_ 0.669945 0.818029 0.161023 0.0
C_ C_ 0.642605 0.81379 0.133871 0.0
C_ C_ 0.413024 0.829403 0.185137 0.0
C_ C_ 0.666112 0.846676 0.18031 0.0
C_ C_ 0.430381 0.907225 0.260949 0.0
C_ C_ 0.416542 0.87753 0.242992 0.0
C_ C_ 0.392127 0.882198 0.215202 0.0
C_ C_ 0.380366 0.916644 0.206373 0.0
C_ C_ 0.394123 0.945648 0.225242 0.0
N_ N_ 0.519601 0.719087 0.066102 0.0
N_ N_ 0.450277 0.642872 0.126543 0.0
N_ N_ 0.378193 0.601806 0.0536496 0.0
N_ N_ 0.420902 0.690701 0.9986 0.0
N_ N_ 0.480399 0.530913 0.316102 0.0
N_ N_ 0.549723 0.607128 0.376543 0.0
N_ N_ 0.621807 0.648194 0.30365 0.0
N_ N_ 0.579098 0.559299 0.2486 0.0
N_ N_ 0.480399 0.780913 0.433898 0.0
N_ N_ 0.549723 0.857128 0.373457 0.0
N_ N_ 0.621807 0.898194 0.44635 0.0
N_ N_ 0.579098 0.809299 0.5014 0.0
N_ N_ 0.519601 0.969087 0.183898 0.0
N_ N_ 0.450277 0.892872 0.123457 0.0
N_ N_ 0.378193 0.851806 0.19635 0.0
N_ N_ 0.420902 0.940701 0.2514 0.0
O_ O_ 0.465517 0.514997 0.217173 0.0
O_ O_ 0.410651 0.534476 0.250578 0.0
O_ O_ 0.362123 0.655721 0.134274 0.0
O_ O_ 0.532653 0.620132 0.13586 0.0
O_ O_ 0.59232 0.551058 0.172831 0.0
O_ O_ 0.645557 0.510599 0.184197 0.0
O_ O_ 0.620206 0.605994 0.059287 0.0
O_ O_ 0.454156 0.569983 0.0492879 0.0
O_ O_ 0.534483 0.735003 0.467173 0.0
O_ O_ 0.589349 0.715524 0.000578323 0.0
O_ O_ 0.637877 0.594279 0.384274 0.0
O_ O_ 0.467347 0.629868 0.38586 0.0
O_ O_ 0.40768 0.698942 0.422831 0.0
O_ O_ 0.354443 0.739401 0.434197 0.0
O_ O_ 0.379794 0.644007 0.309287 0.0
O_ O_ 0.545844 0.680017 0.299288 0.0
O_ O_ 0.534483 0.985003 0.282827 0.0
O_ O_ 0.589349 0.965524 0.249422 0.0
O_ O_ 0.637877 0.844279 0.365726 0.0
O_ O_ 0.467347 0.879868 0.36414 0.0
O_ O_ 0.40768 0.948942 0.327169 0.0
O_ O_ 0.354443 0.989401 0.315803 0.0
O_ O_ 0.379794 0.894007 0.440713 0.0
O_ O_ 0.545844 0.930017 0.450712 0.0
O_ O_ 0.465517 0.764997 0.032827 0.0
O_ O_ 0.410651 0.784476 0.499422 0.0
O_ O_ 0.362123 0.905721 0.115726 0.0
O_ O_ 0.532653 0.870132 0.11414 0.0
O_ O_ 0.59232 0.801058 0.0771694 0.0
O_ O_ 0.645557 0.760599 0.0658027 0.0
O_ O_ 0.620206 0.855994 0.190713 0.0
O_ O_ 0.454156 0.819983 0.200712 0.0
Cd Cd 0.563502 0.511719 0.71467 0.0
Cd Cd 0.436498 0.738281 0.96467 0.0
Cd Cd 0.436498 0.988281 0.78533 0.0
Cd Cd 0.563502 0.761719 0.53533 0.0
H_ H_ 0.351294 0.579745 0.725897 0.0
H_ H_ 0.668104 0.629013 0.690298 0.0
H_ H_ 0.498892 0.565178 0.679747 0.0
H_ H_ 0.500395 0.758413 0.597662 0.0
H_ H_ 0.455477 0.714791 0.632561 0.0
H_ H_ 0.499181 0.629969 0.574356 0.0
H_ H_ 0.53885 0.675225 0.5391 0.0
H_ H_ 0.402979 0.52026 0.654784 0.0
H_ H_ 0.455113 0.536785 0.608694 0.0
H_ H_ 0.604364 0.574876 0.618937 0.0
H_ H_ 0.445366 0.653364 0.96672 0.0
H_ H_ 0.423131 0.600974 0.498905 0.0
H_ H_ 0.360554 0.670902 0.564808 0.0
H_ H_ 0.381605 0.721767 0.530389 0.0
H_ H_ 0.648706 0.670255 0.975897 0.0
H_ H_ 0.331896 0.620987 0.940298 0.0
H_ H_ 0.501108 0.684822 0.929747 0.0
H_ H_ 0.499605 0.991587 0.847662 0.0
H_ H_ 0.544523 0.535209 0.882561 0.0
H_ H_ 0.500819 0.620031 0.824356 0.0
H_ H_ 0.46115 0.574775 0.7891 0.0
H_ H_ 0.597021 0.72974 0.904784 0.0
H_ H_ 0.544887 0.713215 0.858694 0.0
H_ H_ 0.395636 0.675124 0.868937 0.0
H_ H_ 0.554634 0.596636 0.71672 0.0
H_ H_ 0.576869 0.649026 0.748905 0.0
H_ H_ 0.639446 0.579098 0.814808 0.0
H_ H_ 0.618395 0.528233 0.780389 0.0
H_ H_ 0.648706 0.920255 0.774103 0.0
H_ H_ 0.331896 0.870987 0.809702 0.0
H_ H_ 0.501108 0.934822 0.820253 0.0
H_ H_ 0.499605 0.741587 0.902338 0.0
H_ H_ 0.544523 0.785209 0.867439 0.0
H_ H_ 0.500819 0.870031 0.925644 0.0
H_ H_ 0.46115 0.824775 0.9609 0.0
H_ H_ 0.597021 0.97974 0.845216 0.0
H_ H_ 0.544887 0.963215 0.891306 0.0
H_ H_ 0.395636 0.925124 0.881063 0.0
H_ H_ 0.554634 0.846636 0.53328 0.0
H_ H_ 0.576869 0.899026 0.00109454 0.0
H_ H_ 0.639446 0.829098 0.935192 0.0
H_ H_ 0.618395 0.778233 0.969611 0.0
H_ H_ 0.351294 0.829745 0.524103 0.0
H_ H_ 0.668104 0.879013 0.559702 0.0
H_ H_ 0.498892 0.815178 0.570253 0.0
H_ H_ 0.500395 0.508413 0.652338 0.0
H_ H_ 0.455477 0.964791 0.617439 0.0
H_ H_ 0.499181 0.879969 0.675644 0.0
H_ H_ 0.53885 0.925225 0.7109 0.0
H_ H_ 0.402979 0.77026 0.595216 0.0
H_ H_ 0.455113 0.786785 0.641306 0.0
H_ H_ 0.604364 0.824876 0.631063 0.0
H_ H_ 0.445366 0.903364 0.78328 0.0
H_ H_ 0.423131 0.850974 0.751095 0.0
H_ H_ 0.360554 0.920902 0.685192 0.0
H_ H_ 0.381605 0.971767 0.719611 0.0
C_ C_ 0.43868 0.539998 0.727052 0.0
C_ C_ 0.42932 0.570771 0.707483 0.0
C_ C_ 0.381853 0.588822 0.710019 0.0
C_ C_ 0.372918 0.617352 0.690542 0.0
C_ C_ 0.414437 0.63051 0.671853 0.0
C_ C_ 0.4608 0.613273 0.669669 0.0
C_ C_ 0.466734 0.581574 0.685219 0.0
C_ C_ 0.481436 0.620719 0.641473 0.0
C_ C_ 0.408884 0.648598 0.645016 0.0
C_ C_ 0.497609 0.730298 0.592092 0.0
C_ C_ 0.472407 0.705623 0.611814 0.0
C_ C_ 0.471479 0.669032 0.605206 0.0
C_ C_ 0.49651 0.658066 0.579027 0.0
C_ C_ 0.51981 0.683656 0.559394 0.0
C_ C_ 0.634705 0.53623 0.667278 0.0
C_ C_ 0.665401 0.544726 0.639664 0.0
C_ C_ 0.384406 0.533773 0.636493 0.0
C_ C_ 0.413353 0.541779 0.610068 0.0
C_ C_ 0.387771 0.557109 0.585956 0.0
C_ C_ 0.669945 0.568029 0.588977 0.0
C_ C_ 0.642605 0.56379 0.616129 0.0
C_ C_ 0.413024 0.579403 0.564863 0.0
C_ C_ 0.666112 0.596676 0.56969 0.0
C_ C_ 0.430381 0.657225 0.989051 0.0
C_ C_ 0.416542 0.62753 0.507008 0.0
C_ C_ 0.392127 0.632198 0.534798 0.0
C_ C_ 0.380366 0.666644 0.543627 0.0
C_ C_ 0.394123 0.695648 0.524758 0.0
C_ C_ 0.56132 0.710002 0.977052 0.0
C_ C_ 0.57068 0.679229 0.957483 0.0
C_ C_ 0.618147 0.661178 0.960019 0.0
C_ C_ 0.627082 0.632648 0.940542 0.0
C_ C_ 0.585563 0.61949 0.921853 0.0
C_ C_ 0.5392 0.636727 0.919669 0.0
C_ C_ 0.533266 0.668426 0.935219 0.0
C_ C_ 0.518564 0.629281 0.891473 0.0
C_ C_ 0.591116 0.601402 0.895016 0.0
C_ C_ 0.502391 0.519702 0.842092 0.0
C_ C_ 0.527593 0.544377 0.861814 0.0
C_ C_ 0.528521 0.580968 0.855206 0.0
C_ C_ 0.50349 0.591934 0.829027 0.0
C_ C_ 0.48019 0.566344 0.809394 0.0
C_ C_ 0.365295 0.71377 0.917278 0.0
C_ C_ 0.334599 0.705274 0.889664 0.0
C_ C_ 0.615594 0.716227 0.886493 0.0
C_ C_ 0.586647 0.708221 0.860068 0.0
C_ C_ 0.612229 0.692891 0.835956 0.0
C_ C_ 0.330055 0.681971 0.838977 0.0
C_ C_ 0.357395 0.68621 0.866129 0.0
C_ C_ 0.586976 0.670597 0.814863 0.0
C_ C_ 0.333888 0.653324 0.81969 0.0
C_ C_ 0.569619 0.592775 0.739051 0.0
C_ C_ 0.583458 0.62247 0.757008 0.0
C_ C_ 0.607873 0.617802 0.784798 0.0
C_ C_ 0.619634 0.583356 0.793627 0.0
C_ C_ 0.605877 0.554352 0.774758 0.0
C_ C_ 0.56132 0.960002 0.772948 0.0
C_ C_ 0.57068 0.929229 0.792517 0.0
C_ C_ 0.618147 0.911178 0.789981 0.0
C_ C_ 0.627082 0.882648 0.809458 0.0
C_ C_ 0.585563 0.86949 0.828147 0.0
C_ C_ 0.5392 0.886727 0.830331 0.0
C_ C_ 0.533266 0.918426 0.814781 0.0
C_ C_ 0.518564 0.879281 0.858527 0.0
C_ C_ 0.591116 0.851402 0.854984 0.0
C_ C_ 0.502391 0.769702 0.907908 0.0
C_ C_ 0.527593 0.794377 0.888186 0.0
C_ C_ 0.528521 0.830968 0.894794 0.0
C_ C_ 0.50349 0.841934 0.920973 0.0
C_ C_ 0.48019 0.816344 0.940606 0.0
C_ C_ 0.365295 0.96377 0.832722 0.0
C_ C_ 0.334599 0.955274 0.860336 0.0
C_ C_ 0.615594 0.966227 0.863507 0.0
C_ C_ 0.586647 0.958221 0.889932 0.0
C_ C_ 0.612229 0.942891 0.914044 0.0
C_ C_ 0.330055 0.931971 0.911023 0.0
C_ C_ 0.357395 0.93621 0.883871 0.0
C_ C_ 0.586976 0.920597 0.935137 0.0
C_ C_ 0.333888 0.903324 0.93031 0.0
C_ C_ 0.569619 0.842775 0.510949 0.0
C_ C_ 0.583458 0.87247 0.992992 0.0
C_ C_ 0.607873 0.867802 0.965202 0.0
C_ C_ 0.619634 0.833356 0.956373 0.0
C_ C_ 0.605877 0.804352 0.975242 0.0
C_ C_ 0.43868 0.789998 0.522948 0.0
C_ C_ 0.42932 0.820771 0.542517 0.0
C_ C_ 0.381853 0.838822 0.539981 0.0
C_ C_ 0.372918 0.867352 0.559458 0.0
C_ C_ 0.414437 0.88051 0.578147 0.0
C_ C_ 0.4608 0.863273 0.580331 0.0
C_ C_ 0.466734 0.831574 0.564781 0.0
C_ C_ 0.481436 0.870719 0.608527 0.0
C_ C_ 0.408884 0.898598 0.604984 0.0
C_ C_ 0.497609 0.980298 0.657908 0.0
C_ C_ 0.472407 0.955623 0.638186 0.0
C_ C_ 0.471479 0.919032 0.644794 0.0
C_ C_ 0.49651 0.908066 0.670973 0.0
C_ C_ 0.51981 0.933656 0.690606 0.0
C_ C_ 0.634705 0.78623 0.582722 0.0
C_ C_ 0.665401 0.794726 0.610336 0.0
C_ C_ 0.384406 0.783773 0.613507 0.0
C_ C_ 0.413353 0.791779 0.639932 0.0
C_ C_ 0.387771 0.807109 0.664044 0.0
C_ C_ 0.669945 0.818029 0.661023 0.0
C_ C_ 0.642605 0.81379 0.633871 0.0
C_ C_ 0.413024 0.829403 0.685137 0.0
C_ C_ 0.666112 0.846676 0.68031 0.0
C_ C_ 0.430381 0.907225 0.760949 0.0
C_ C_ 0.416542 0.87753 0.742992 0.0
C_ C_ 0.392127 0.882198 0.715202 0.0
C_ C_ 0.380366 0.916644 0.706373 0.0
C_ C_ 0.394123 0.945648 0.725242 0.0
N_ N_ 0.519601 0.719087 0.566102 0.0
N_ N_ 0.450277 0.642872 0.626543 0.0
N_ N_ 0.378193 0.601806 0.55365 0.0
N_ N_ 0.420902 0.690701 0.4986 0.0
N_ N_ 0.480399 0.530913 0.816102 0.0
N_ N_ 0.549723 0.607128 0.876543 0.0
N_ N_ 0.621807 0.648194 0.80365 0.0
N_ N_ 0.579098 0.559299 0.7486 0.0
N_ N_ 0.480399 0.780913 0.933898 0.0
N_ N_ 0.549723 0.857128 0.873457 0.0
N_ N_ 0.621807 0.898194 0.94635 0.0
N_ N_ 0.579098 0.809299 0.00139979 0.0
N_ N_ 0.519601 0.969087 0.683898 0.0
N_ N_ 0.450277 0.892872 0.623457 0.0
N_ N_ 0.378193 0.851806 0.69635 0.0
N_ N_ 0.420902 0.940701 0.7514 0.0
O_ O_ 0.465517 0.514997 0.717173 0.0
O_ O_ 0.410651 0.534476 0.750578 0.0
O_ O_ 0.362123 0.655721 0.634274 0.0
O_ O_ 0.532653 0.620132 0.63586 0.0
O_ O_ 0.59232 0.551058 0.672831 0.0
O_ O_ 0.645557 0.510599 0.684197 0.0
O_ O_ 0.620206 0.605994 0.559287 0.0
O_ O_ 0.454156 0.569983 0.549288 0.0
O_ O_ 0.534483 0.735003 0.967173 0.0
O_ O_ 0.589349 0.715524 0.500578 0.0
O_ O_ 0.637877 0.594279 0.884274 0.0
O_ O_ 0.467347 0.629868 0.88586 0.0
O_ O_ 0.40768 0.698942 0.922831 0.0
O_ O_ 0.354443 0.739401 0.934197 0.0
O_ O_ 0.379794 0.644007 0.809287 0.0
O_ O_ 0.545844 0.680017 0.799288 0.0
O_ O_ 0.534483 0.985003 0.782827 0.0
O_ O_ 0.589349 0.965524 0.749422 0.0
O_ O_ 0.637877 0.844279 0.865726 0.0
O_ O_ 0.467347 0.879868 0.86414 0.0
O_ O_ 0.40768 0.948942 0.827169 0.0
O_ O_ 0.354443 0.989401 0.815803 0.0
O_ O_ 0.379794 0.894007 0.940713 0.0
O_ O_ 0.545844 0.930017 0.950712 0.0
O_ O_ 0.465517 0.764997 0.532827 0.0
O_ O_ 0.410651 0.784476 0.999422 0.0
O_ O_ 0.362123 0.905721 0.615726 0.0
O_ O_ 0.532653 0.870132 0.61414 0.0
O_ O_ 0.59232 0.801058 0.577169 0.0
O_ O_ 0.645557 0.760599 0.565803 0.0
O_ O_ 0.620206 0.855994 0.690713 0.0
O_ O_ 0.454156 0.819983 0.700712 0.0
Cd Cd 0.896835 0.0117191 0.21467 0.0
Cd Cd 0.769832 0.238281 0.46467 0.0
Cd Cd 0.769832 0.488281 0.28533 0.0
Cd Cd 0.896835 0.261719 0.0353296 0.0
H_ H_ 0.684627 0.0797452 0.225897 0.0
H_ H_ 0.00143726 0.129013 0.190298 0.0
H_ H_ 0.832225 0.0651784 0.179747 0.0
H_ H_ 0.833728 0.258413 0.0976618 0.0
H_ H_ 0.78881 0.214791 0.132561 0.0
H_ H_ 0.832514 0.129969 0.0743557 0.0
H_ H_ 0.872183 0.175225 0.0391002 0.0
H_ H_ 0.736312 0.0202596 0.154784 0.0
H_ H_ 0.788447 0.0367846 0.108694 0.0
H_ H_ 0.937697 0.0748764 0.118937 0.0
H_ H_ 0.778699 0.153364 0.46672 0.0
H_ H_ 0.756465 0.100974 0.998905 0.0
H_ H_ 0.693888 0.170902 0.0648075 0.0
H_ H_ 0.714938 0.221767 0.0303887 0.0
H_ H_ 0.98204 0.170255 0.475897 0.0
H_ H_ 0.665229 0.120987 0.440298 0.0
H_ H_ 0.834442 0.184822 0.429747 0.0
H_ H_ 0.832939 0.491587 0.347662 0.0
H_ H_ 0.877857 0.035209 0.382561 0.0
H_ H_ 0.834153 0.120031 0.324356 0.0
H_ H_ 0.794483 0.0747749 0.2891 0.0
H_ H_ 0.930355 0.22974 0.404784 0.0
H_ H_ 0.87822 0.213215 0.358694 0.0
H_ H_ 0.728969 0.175124 0.368937 0.0
H_ H_ 0.887968 0.0966362 0.21672 0.0
H_ H_ 0.910202 0.149026 0.248905 0.0
H_ H_ 0.972779 0.0790981 0.314808 0.0
H_ H_ 0.951728 0.0282328 0.280389 0.0
H_ H_ 0.98204 0.420255 0.274103 0.0
H_ H_ 0.665229 0.370987 0.309702 0.0
H_ H_ 0.834442 0.434822 0.320253 0.0
H_ H_ 0.832939 0.241587 0.402338 0.0
H_ H_ 0.877857 0.285209 0.367439 0.0
H_ H_ 0.834153 0.370031 0.425644 0.0
H_ H_ 0.794483 0.324775 0.4609 0.0
H_ H_ 0.930355 0.47974 0.345216 0.0
H_ H_ 0.87822 0.463215 0.391306 0.0
H_ H_ 0.728969 0.425124 0.381063 0.0
H_ H_ 0.887968 0.346636 0.0332805 0.0
H_ H_ 0.910202 0.399026 0.501095 0.0
H_ H_ 0.972779 0.329098 0.435192 0.0
H_ H_ 0.951728 0.278233 0.469611 0.0
H_ H_ 0.684627 0.329745 0.0241033 0.0
H_ H_ 0.00143727 0.379013 0.0597022 0.0
H_ H_ 0.832225 0.315178 0.0702528 0.0
H_ H_ 0.833728 0.00841344 0.152338 0.0
H_ H_ 0.78881 0.464791 0.117439 0.0
H_ H_ 0.832514 0.379969 0.175644 0.0
H_ H_ 0.872183 0.425225 0.2109 0.0
H_ H_ 0.736312 0.27026 0.0952161 0.0
H_ H_ 0.788447 0.286785 0.141306 0.0
H_ H_ 0.937697 0.324876 0.131063 0.0
H_ H_ 0.778699 0.403364 0.28328 0.0
H_ H_ 0.756465 0.350974 0.251095 0.0
H_ H_ 0.693888 0.420902 0.185192 0.0
H_ H_ 0.714938 0.471767 0.219611 0.0
C_ C_ 0.772014 0.0399984 0.227052 0.0
C_ C_ 0.762653 0.0707715 0.207483 0.0
C_ C_ 0.715187 0.0888219 0.210019 0.0
C_ C_ 0.706251 0.117352 0.190542 0.0
C_ C_ 0.747771 0.13051 0.171853 0.0
C_ C_ 0.794133 0.113273 0.169669 0.0
C_ C_ 0.800068 0.0815736 0.185219 0.0
C_ C_ 0.814769 0.120719 0.141473 0.0
C_ C_ 0.742217 0.148598 0.145016 0.0
C_ C_ 0.830943 0.230298 0.0920919 0.0
C_ C_ 0.80574 0.205623 0.111814 0.0
C_ C_ 0.804812 0.169032 0.105206 0.0
C_ C_ 0.829843 0.158066 0.0790275 0.0
C_ C_ 0.853144 0.183656 0.0593936 0.0
C_ C_ 0.968039 0.0362297 0.167278 0.0
C_ C_ 0.998734 0.0447258 0.139664 0.0
C_ C_ 0.717739 0.0337728 0.136493 0.0
C_ C_ 0.746686 0.0417792 0.110068 0.0
C_ C_ 0.721104 0.0571085 0.0859562 0.0
C_ C_ 0.00327862 0.0680289 0.0889766 0.0
C_ C_ 0.975938 0.0637899 0.116129 0.0
C_ C_ 0.746357 0.0794027 0.0648629 0.0
C_ C_ 0.999445 0.0966762 0.0696897 0.0
C_ C_ 0.763715 0.157225 0.489051 0.0
C_ C_ 0.749875 0.12753 0.00700845 0.0
C_ C_ 0.725461 0.132198 0.0347975 0.0
C_ C_ 0.713699 0.166644 0.0436273 0.0
C_ C_ 0.727456 0.195648 0.0247575 0.0
C_ C_ 0.894653 0.210002 0.477052 0.0
C_ C_ 0.904014 0.179229 0.457483 0.0
C_ C_ 0.95148 0.161178 0.460019 0.0
C_ C_ 0.960415 0.132648 0.440542 0.0
C_ C_ 0.918896 0.11949 0.421853 0.0
C_ C_ 0.872534 0.136727 0.419669 0.0
C_ C_ 0.866599 0.168426 0.435219 0.0
C_ C_ 0.851898 0.129281 0.391473 0.0
C_ C_ 0.924449 0.101402 0.395016 0.0
C_ C_ 0.835724 0.0197024 0.342092 0.0
C_ C_ 0.860926 0.044377 0.361814 0.0
C_ C_ 0.861855 0.0809681 0.355206 0.0
C_ C_ 0.836823 0.0919345 0.329027 0.0
C_ C_ 0.813523 0.0663441 0.309394 0.0
C_ C_ 0.698628 0.21377 0.417278 0.0
C_ C_ 0.667933 0.205274 0.389664 0.0
C_ C_ 0.948927 0.216227 0.386493 0.0
C_ C_ 0.91998 0.208221 0.360068 0.0
C_ C_ 0.945562 0.192891 0.335956 0.0
C_ C_ 0.663388 0.181971 0.338977 0.0
C_ C_ 0.690729 0.18621 0.366129 0.0
C_ C_ 0.92031 0.170597 0.314863 0.0
C_ C_ 0.667221 0.153324 0.31969 0.0
C_ C_ 0.902952 0.0927748 0.239051 0.0
C_ C_ 0.916792 0.12247 0.257008 0.0
C_ C_ 0.941206 0.117802 0.284798 0.0
C_ C_ 0.952968 0.0833558 0.293627 0.0
C_ C_ 0.93921 0.0543523 0.274758 0.0
C_ C_ 0.894653 0.460002 0.272948 0.0
C_ C_ 0.904014 0.429229 0.292517 0.0
C_ C_ 0.95148 0.411178 0.289981 0.0
C_ C_ 0.960415 0.382648 0.309458 0.0
C_ C_ 0.918896 0.36949 0.328147 0.0
C_ C_ 0.872534 0.386727 0.330331 0.0
C_ C_ 0.866599 0.418426 0.314781 0.0
C_ C_ 0.851898 0.379281 0.358527 0.0
C_ C_ 0.924449 0.351402 0.354984 0.0
C_ C_ 0.835724 0.269702 0.407908 0.0
C_ C_ 0.860926 0.294377 0.388186 0.0
C_ C_ 0.861855 0.330968 0.394794 0.0
C_ C_ 0.836823 0.341934 0.420973 0.0
C_ C_ 0.813523 0.316344 0.440606 0.0
C_ C_ 0.698628 0.46377 0.332722 0.0
C_ C_ 0.667933 0.455274 0.360336 0.0
C_ C_ 0.948927 0.466227 0.363507 0.0
C_ C_ 0.91998 0.458221 0.389932 0.0
C_ C_ 0.945562 0.442891 0.414044 0.0
C_ C_ 0.663388 0.431971 0.411023 0.0
C_ C_ 0.690729 0.43621 0.383871 0.0
C_ C_ 0.92031 0.420597 0.435137 0.0
C_ C_ 0.667221 0.403324 0.43031 0.0
C_ C_ 0.902952 0.342775 0.010949 0.0
C_ C_ 0.916792 0.37247 0.492992 0.0
C_ C_ 0.941206 0.367802 0.465202 0.0
C_ C_ 0.952968 0.333356 0.456373 0.0
C_ C_ 0.93921 0.304352 0.475242 0.0
C_ C_ 0.772014 0.289998 0.0229477 0.0
C_ C_ 0.762653 0.320771 0.0425173 0.0
C_ C_ 0.715187 0.338822 0.0399812 0.0
C_ C_ 0.706251 0.367352 0.0594584 0.0
C_ C_ 0.747771 0.38051 0.0781469 0.0
C_ C_ 0.794133 0.363273 0.0803307 0.0
C_ C_ 0.800068 0.331574 0.0647813 0.0
C_ C_ 0.814769 0.370719 0.108527 0.0
C_ C_ 0.742217 0.398598 0.104984 0.0
C_ C_ 0.830943 0.480298 0.157908 0.0
C_ C_ 0.80574 0.455623 0.138186 0.0
C_ C_ 0.804812 0.419032 0.144794 0.0
C_ C_ 0.829843 0.408066 0.170973 0.0
C_ C_ 0.853144 0.433656 0.190606 0.0
C_ C_ 0.968039 0.28623 0.0827219 0.0
C_ C_ 0.998734 0.294726 0.110336 0.0
C_ C_ 0.717739 0.283773 0.113507 0.0
C_ C_ 0.746686 0.291779 0.139932 0.0
C_ C_ 0.721104 0.307109 0.164044 0.0
C_ C_ 0.00327863 0.318029 0.161023 0.0
C_ C_ 0.975938 0.31379 0.133871 0.0
C_ C_ 0.746357 0.329403 0.185137 0.0
C_ C_ 0.999445 0.346676 0.18031 0.0
C_ C_ 0.763715 0.407225 0.260949 0.0
C_ C_ 0.749875 0.37753 0.242992 0.0
C_ C_ 0.725461 0.382198 0.215202 0.0
C_ C_ 0.713699 0.416644 0.206373 0.0
C_ C_ 0.727456 0.445648 0.225242 0.0
N_ N_ 0.852935 0.219087 0.066102 0.0
N_ N_ 0.783611 0.142872 0.126543 0.0
N_ N_ 0.711527 0.101806 0.0536496 0.0
N_ N_ 0.754235 0.190701 0.9986 0.0
N_ N_ 0.813732 0.030913 0.316102 0.0
N_ N_ 0.883056 0.107128 0.376543 0.0
N_ N_ 0.95514 0.148194 0.30365 0.0
N_ N_ 0.912431 0.0592986 0.2486 0.0
N_ N_ 0.813732 0.280913 0.433898 0.0
N_ N_ 0.883056 0.357128 0.373457 0.0
N_ N_ 0.95514 0.398194 0.44635 0.0
N_ N_ 0.912431 0.309299 0.5014 0.0
N_ N_ 0.852935 0.469087 0.183898 0.0
N_ N_ 0.783611 0.392872 0.123457 0.0
N_ N_ 0.711527 0.351806 0.19635 0.0
N_ N_ 0.754235 0.440701 0.2514 0.0
O_ O_ 0.79885 0.0149975 0.217173 0.0
O_ O_ 0.743984 0.0344756 0.250578 0.0
O_ O_ 0.695457 0.155721 0.134274 0.0
O_ O_ 0.865986 0.120132 0.13586 0.0
O_ O_ 0.925653 0.0510577 0.172831 0.0
O_ O_ 0.978891 0.0105991 0.184197 0.0
O_ O_ 0.95354 0.105994 0.059287 0.0
O_ O_ 0.78749 0.0699826 0.0492879 0.0
O_ O_ 0.867816 0.235003 0.467173 0.0
O_ O_ 0.922682 0.215524 0.000578323 0.0
O_ O_ 0.97121 0.094279 0.384274 0.0
O_ O_ 0.80068 0.129868 0.38586 0.0
O_ O_ 0.741013 0.198942 0.422831 0.0
O_ O_ 0.687776 0.239401 0.434197 0.0
O_ O_ 0.713127 0.144006 0.309287 0.0
O_ O_ 0.879177 0.180017 0.299288 0.0
O_ O_ 0.867816 0.485003 0.282827 0.0
O_ O_ 0.922682 0.465524 0.249422 0.0
O_ O_ 0.97121 0.344279 0.365726 0.0
O_ O_ 0.80068 0.379868 0.36414 0.0
O_ O_ 0.741013 0.448942 0.327169 0.0
O_ O_ 0.687776 0.489401 0.315803 0.0
O_ O_ 0.713127 0.394006 0.440713 0.0
O_ O_ 0.879177 0.430017 0.450712 0.0
O_ O_ 0.79885 0.264997 0.032827 0.0
O_ O_ 0.743984 0.284476 0.499422 0.0
O_ O_ 0.695457 0.405721 0.115726 0.0
O_ O_ 0.865986 0.370132 0.11414 0.0
O_ O_ 0.925653 0.301058 0.0771694 0.0
O_ O_ 0.978891 0.260599 0.0658027 0.0
O_ O_ 0.95354 0.355994 0.190713 0.0
O_ O_ 0.78749 0.319983 0.200712 0.0
Cd Cd 0.896835 0.0117191 0.71467 0.0
Cd Cd 0.769832 0.238281 0.96467 0.0
Cd Cd 0.769832 0.488281 0.78533 0.0
Cd Cd 0.896835 0.261719 0.53533 0.0
H_ H_ 0.684627 0.0797452 0.725897 0.0
H_ H_ 0.00143726 0.129013 0.690298 0.0
H_ H_ 0.832225 0.0651784 0.679747 0.0
H_ H_ 0.833728 0.258413 0.597662 0.0
H_ H_ 0.78881 0.214791 0.632561 0.0
H_ H_ 0.832514 0.129969 0.574356 0.0
H_ H_ 0.872183 0.175225 0.5391 0.0
H_ H_ 0.736312 0.0202596 0.654784 0.0
H_ H_ 0.788447 0.0367846 0.608694 0.0
H_ H_ 0.937697 0.0748764 0.618937 0.0
H_ H_ 0.778699 0.153364 0.96672 0.0
H_ H_ 0.756465 0.100974 0.498905 0.0
H_ H_ 0.693888 0.170902 0.564808 0.0
H_ H_ 0.714938 0.221767 0.530389 0.0
H_ H_ 0.98204 0.170255 0.975897 0.0
H_ H_ 0.665229 0.120987 0.940298 0.0
H_ H_ 0.834442 0.184822 0.929747 0.0
H_ H_ 0.832939 0.491587 0.847662 0.0
H_ H_ 0.877857 0.035209 0.882561 0.0
H_ H_ 0.834153 0.120031 0.824356 0.0
H_ H_ 0.794483 0.0747749 0.7891 0.0
H_ H_ 0.930355 0.22974 0.904784 0.0
H_ H_ 0.87822 0.213215 0.858694 0.0
H_ H_ 0.728969 0.175124 0.868937 0.0
H_ H_ 0.887968 0.0966362 0.71672 0.0
H_ H_ 0.910202 0.149026 0.748905 0.0
H_ H_ 0.972779 0.0790981 0.814808 0.0
H_ H_ 0.951728 0.0282328 0.780389 0.0
H_ H_ 0.98204 0.420255 0.774103 0.0
H_ H_ 0.665229 0.370987 0.809702 0.0
H_ H_ 0.834442 0.434822 0.820253 0.0
H_ H_ 0.832939 0.241587 0.902338 0.0
H_ H_ 0.877857 0.285209 0.867439 0.0
H_ H_ 0.834153 0.370031 0.925644 0.0
H_ H_ 0.794483 0.324775 0.9609 0.0
H_ H_ 0.930355 0.47974 0.845216 0.0
H_ H_ 0.87822 0.463215 0.891306 0.0
H_ H_ 0.728969 0.425124 0.881063 0.0
H_ H_ 0.887968 0.346636 0.53328 0.0
H_ H_ 0.910202 0.399026 0.00109454 0.0
H_ H_ 0.972779 0.329098 0.935192 0.0
H_ H_ 0.951728 0.278233 0.969611 0.0
H_ H_ 0.684627 0.329745 0.524103 0.0
H_ H_ 0.00143727 0.379013 0.559702 0.0
H_ H_ 0.832225 0.315178 0.570253 0.0
H_ H_ 0.833728 0.00841344 0.652338 0.0
H_ H_ 0.78881 0.464791 0.617439 0.0
H_ H_ 0.832514 0.379969 0.675644 0.0
H_ H_ 0.872183 0.425225 0.7109 0.0
H_ H_ 0.736312 0.27026 0.595216 0.0
H_ H_ 0.788447 0.286785 0.641306 0.0
H_ H_ 0.937697 0.324876 0.631063 0.0
H_ H_ 0.778699 0.403364 0.78328 0.0
H_ H_ 0.756465 0.350974 0.751095 0.0
H_ H_ 0.693888 0.420902 0.685192 0.0
H_ H_ 0.714938 0.471767 0.719611 0.0
C_ C_ 0.772014 0.0399984 0.727052 0.0
C_ C_ 0.762653 0.0707715 0.707483 0.0
C_ C_ 0.715187 0.0888219 0.710019 0.0
C_ C_ 0.706251 0.117352 0.690542 0.0
C_ C_ 0.747771 0.13051 0.671853 0.0
C_ C_ 0.794133 0.113273 0.669669 0.0
C_ C_ 0.800068 0.0815736 0.685219 0.0
C_ C_ 0.814769 0.120719 0.641473 0.0
C_ C_ 0.742217 0.148598 0.645016 0.0
C_ C_ 0.830943 0.230298 0.592092 0.0
C_ C_ 0.80574 0.205623 0.611814 0.0
C_ C_ 0.804812 0.169032 0.605206 0.0
C_ C_ 0.829843 0.158066 0.579027 0.0
C_ C_ 0.853144 0.183656 0.559394 0.0
C_ C_ 0.968039 0.0362297 0.667278 0.0
C_ C_ 0.998734 0.0447258 0.639664 0.0
C_ C_ 0.717739 0.0337728 0.636493 0.0
C_ C_ 0.746686 0.0417792 0.610068 0.0
C_ C_ 0.721104 0.0571085 0.585956 0.0
C_ C_ 0.00327862 0.0680289 0.588977 0.0
C_ C_ 0.975938 0.0637899 0.616129 0.0
C_ C_ 0.746357 0.0794027 0.564863 0.0
C_ C_ 0.999445 0.0966762 0.56969 0.0
C_ C_ 0.763715 0.157225 0.989051 0.0
C_ C_ 0.749875 0.12753 0.507008 0.0
C_ C_ 0.725461 0.132198 0.534798 0.0
C_ C_ 0.713699 0.166644 0.543627 0.0
C_ C_ 0.727456 0.195648 0.524758 0.0
C_ C_ 0.894653 0.210002 0.977052 0.0
C_ C_ 0.904014 0.179229 0.957483 0.0
C_ C_ 0.95148 0.161178 0.960019 0.0
C_ C_ 0.960415 0.132648 0.940542 0.0
C_ C_ 0.918896 0.11949 0.921853 0.0
C_ C_ 0.872534 0.136727 0.919669 0.0
C_ C_ 0.866599 0.168426 0.935219 0.0
C_ C_ 0.851898 0.129281 0.891473 0.0
C_ C_ 0.924449 0.101402 0.895016 0.0
C_ C_ 0.835724 0.0197024 0.842092 0.0
C_ C_ 0.860926 0.044377 0.861814 0.0
C_ C_ 0.861855 0.0809681 0.855206 0.0
C_ C_ 0.836823 0.0919345 0.829027 0.0
C_ C_ 0.813523 0.0663441 0.809394 0.0
C_ C_ 0.698628 0.21377 0.917278 0.0
C_ C_ 0.667933 0.205274 0.889664 0.0
C_ C_ 0.948927 0.216227 0.886493 0.0
C_ C_ 0.91998 0.208221 0.860068 0.0
C_ C_ 0.945562 0.192891 0.835956 0.0
C_ C_ 0.663388 0.181971 0.838977 0.0
C_ C_ 0.690729 0.18621 0.866129 0.0
C_ C_ 0.92031 0.170597 0.814863 0.0
C_ C_ 0.667221 0.153324 0.81969 0.0
C_ C_ 0.902952 0.0927748 0.739051 0.0
C_ C_ 0.916792 0.12247 0.757008 0.0
C_ C_ 0.941206 0.117802 0.784798 0.0
C_ C_ 0.952968 0.0833558 0.793627 0.0
C_ C_ 0.93921 0.0543523 0.774758 0.0
C_ C_ 0.894653 0.460002 0.772948 0.0
C_ C_ 0.904014 0.429229 0.792517 0.0
C_ C_ 0.95148 0.411178 0.789981 0.0
C_ C_ 0.960415 0.382648 0.809458 0.0
C_ C_ 0.918896 0.36949 0.828147 0.0
C_ C_ 0.872534 0.386727 0.830331 0.0
C_ C_ 0.866599 0.418426 0.814781 0.0
C_ C_ 0.851898 0.379281 0.858527 0.0
C_ C_ 0.924449 0.351402 0.854984 0.0
C_ C_ 0.835724 0.269702 0.907908 0.0
C_ C_ 0.860926 0.294377 0.888186 0.0
C_ C_ 0.861855 0.330968 0.894794 0.0
C_ C_ 0.836823 0.341934 0.920973 0.0
C_ C_ 0.813523 0.316344 0.940606 0.0
C_ C_ 0.698628 0.46377 0.832722 0.0
C_ C_ 0.667933 0.455274 0.860336 0.0
C_ C_ 0.948927 0.466227 0.863507 0.0
C_ C_ 0.91998 0.458221 0.889932 0.0
C_ C_ 0.945562 0.442891 0.914044 0.0
C_ C_ 0.663388 0.431971 0.911023 0.0
C_ C_ 0.690729 0.43621 0.883871 0.0
C_ C_ 0.92031 0.420597 0.935137 0.0
C_ C_ 0.667221 0.403324 0.93031 0.0
C_ C_ 0.902952 0.342775 0.510949 0.0
C_ C_ 0.916792 0.37247 0.992992 0.0
C_ C_ 0.941206 0.367802 0.965202 0.0
C_ C_ 0.952968 0.333356 0.956373 0.0
C_ C_ 0.93921 0.304352 0.975242 0.0
C_ C_ 0.772014 0.289998 0.522948 0.0
C_ C_ 0.762653 0.320771 0.542517 0.0
C_ C_ 0.715187 0.338822 0.539981 0.0
C_ C_ 0.706251 0.367352 0.559458 0.0
C_ C_ 0.747771 0.38051 0.578147 0.0
C_ C_ 0.794133 0.363273 0.580331 0.0
C_ C_ 0.800068 0.331574 0.564781 0.0
C_ C_ 0.814769 0.370719 0.608527 0.0
C_ C_ 0.742217 0.398598 0.604984 0.0
C_ C_ 0.830943 0.480298 0.657908 0.0
C_ C_ 0.80574 0.455623 0.638186 0.0
C_ C_ 0.804812 0.419032 0.644794 0.0
C_ C_ 0.829843 0.408066 0.670973 0.0
C_ C_ 0.853144 0.433656 0.690606 0.0
C_ C_ 0.968039 0.28623 0.582722 0.0
C_ C_ 0.998734 0.294726 0.610336 0.0
C_ C_ 0.717739 0.283773 0.613507 0.0
C_ C_ 0.746686 0.291779 0.639932 0.0
C_ C_ 0.721104 0.307109 0.664044 0.0
C_ C_ 0.00327863 0.318029 0.661023 0.0
C_ C_ 0.975938 0.31379 0.633871 0.0
C_ C_ 0.746357 0.329403 0.685137 0.0
C_ C_ 0.999445 0.346676 0.68031 0.0
C_ C_ 0.763715 0.407225 0.760949 0.0
C_ C_ 0.749875 0.37753 0.742992 0.0
C_ C_ 0.725461 0.382198 0.715202 0.0
C_ C_ 0.713699 0.416644 0.706373 0.0
C_ C_ 0.727456 0.445648 0.725242 0.0
N_ N_ 0.852935 0.219087 0.566102 0.0
N_ N_ 0.783611 0.142872 0.626543 0.0
N_ N_ 0.711527 0.101806 0.55365 0.0
N_ N_ 0.754235 0.190701 0.4986 0.0
N_ N_ 0.813732 0.030913 0.816102 0.0
N_ N_ 0.883056 0.107128 0.876543 0.0
N_ N_ 0.95514 0.148194 0.80365 0.0
N_ N_ 0.912431 0.0592986 0.7486 0.0
N_ N_ 0.813732 0.280913 0.933898 0.0
N_ N_ 0.883056 0.357128 0.873457 0.0
N_ N_ 0.95514 0.398194 0.94635 0.0
N_ N_ 0.912431 0.309299 0.00139979 0.0
N_ N_ 0.852935 0.469087 0.683898 0.0
N_ N_ 0.783611 0.392872 0.623457 0.0
N_ N_ 0.711527 0.351806 0.69635 0.0
N_ N_ 0.754235 0.440701 0.7514 0.0
O_ O_ 0.79885 0.0149975 0.717173 0.0
O_ O_ 0.743984 0.0344756 0.750578 0.0
O_ O_ 0.695457 0.155721 0.634274 0.0
O_ O_ 0.865986 0.120132 0.63586 0.0
O_ O_ 0.925653 0.0510577 0.672831 0.0
O_ O_ 0.978891 0.0105991 0.684197 0.0
O_ O_ 0.95354 0.105994 0.559287 0.0
O_ O_ 0.78749 0.0699826 0.549288 0.0
O_ O_ 0.867816 0.235003 0.967173 0.0
O_ O_ 0.922682 0.215524 0.500578 0.0
O_ O_ 0.97121 0.094279 0.884274 0.0
O_ O_ 0.80068 0.129868 0.88586 0.0
O_ O_ 0.741013 0.198942 0.922831 0.0
O_ O_ 0.687776 0.239401 0.934197 0.0
O_ O_ 0.713127 0.144006 0.809287 0.0
O_ O_ 0.879177 0.180017 0.799288 0.0
O_ O_ 0.867816 0.485003 0.782827 0.0
O_ O_ 0.922682 0.465524 0.749422 0.0
O_ O_ 0.97121 0.344279 0.865726 0.0
O_ O_ 0.80068 0.379868 0.86414 0.0
O_ O_ 0.741013 0.448942 0.827169 0.0
O_ O_ 0.687776 0.489401 0.815803 0.0
O_ O_ 0.713127 0.394006 0.940713 0.0
O_ O_ 0.879177 0.430017 0.950712 0.0
O_ O_ 0.79885 0.264997 0.532827 0.0
O_ O_ 0.743984 0.284476 0.999422 0.0
O_ O_ 0.695457 0.405721 0.615726 0.0
O_ O_ 0.865986 0.370132 0.61414 0.0
O_ O_ 0.925653 0.301058 0.577169 0.0
O_ O_ 0.978891 0.260599 0.565803 0.0
O_ O_ 0.95354 0.355994 0.690713 0.0
O_ O_ 0.78749 0.319983 0.700712 0.0
Cd Cd 0.896835 0.511719 0.21467 0.0
Cd Cd 0.769832 0.738281 0.46467 0.0
Cd Cd 0.769832 0.988281 0.28533 0.0
Cd Cd 0.896835 0.761719 0.0353296 0.0
H_ H_ 0.684627 0.579745 0.225897 0.0
H_ H_ 0.00143727 0.629013 0.190298 0.0
H_ H_ 0.832225 0.565178 0.179747 0.0
H_ H_ 0.833728 0.758413 0.0976618 0.0
H_ H_ 0.78881 0.714791 0.132561 0.0
H_ H_ 0.832514 0.629969 0.0743557 0.0
H_ H_ 0.872183 0.675225 0.0391002 0.0
H_ H_ 0.736312 0.52026 0.154784 0.0
H_ H_ 0.788447 0.536785 0.108694 0.0
H_ H_ 0.937697 0.574876 0.118937 0.0
H_ H_ 0.778699 0.653364 0.46672 0.0
H_ H_ 0.756465 0.600974 0.998905 0.0
H_ H_ 0.693888 0.670902 0.0648075 0.0
H_ H_ 0.714938 0.721767 0.0303887 0.0
H_ H_ 0.98204 0.670255 0.475897 0.0
H_ H_ 0.665229 0.620987 0.440298 0.0
H_ H_ 0.834442 0.684822 0.429747 0.0
H_ H_ 0.832939 0.991587 0.347662 0.0
H_ H_ 0.877857 0.535209 0.382561 0.0
H_ H_ 0.834153 0.620031 0.324356 0.0
H_ H_ 0.794483 0.574775 0.2891 0.0
H_ H_ 0.930355 0.72974 0.404784 0.0
H_ H_ 0.87822 0.713215 0.358694 0.0
H_ H_ 0.728969 0.675124 0.368937 0.0
H_ H_ 0.887968 0.596636 0.21672 0.0
H_ H_ 0.910202 0.649026 0.248905 0.0
H_ H_ 0.972779 0.579098 0.314808 0.0
H_ H_ 0.951728 0.528233 0.280389 0.0
H_ H_ 0.98204 0.920255 0.274103 0.0
H_ H_ 0.665229 0.870987 0.309702 0.0
H_ H_ 0.834442 0.934822 0.320253 0.0
H_ H_ 0.832939 0.741587 0.402338 0.0
H_ H_ 0.877857 0.785209 0.367439 0.0
H_ H_ 0.834153 0.870031 0.425644 0.0
H_ H_ 0.794483 0.824775 0.4609 0.0
H_ H_ 0.930355 0.97974 0.345216 0.0
H_ H_ 0.87822 0.963215 0.391306 0.0
H_ H_ 0.728969 0.925124 0.381063 0.0
H_ H_ 0.887968 0.846636 0.0332805 0.0
H_ H_ 0.910202 0.899026 0.501095 0.0
H_ H_ 0.972779 0.829098 0.435192 0.0
H_ H_ 0.951728 0.778233 0.469611 0.0
H_ H_ 0.684627 0.829745 0.0241033 0.0
H_ H_ 0.00143726 0.879013 0.0597022 0.0
H_ H_ 0.832225 0.815178 0.0702528 0.0
H_ H_ 0.833728 0.508413 0.152338 0.0
H_ H_ 0.78881 0.964791 0.117439 0.0
H_ H_ 0.832514 0.879969 0.175644 0.0
H_ H_ 0.872183 0.925225 0.2109 0.0
H_ H_ 0.736312 0.77026 0.0952161 0.0
H_ H_ 0.788447 0.786785 0.141306 0.0
H_ H_ 0.937697 0.824876 0.131063 0.0
H_ H_ 0.778699 0.903364 0.28328 0.0
H_ H_ 0.756465 0.850974 0.251095 0.0
H_ H_ 0.693888 0.920902 0.185192 0.0
H_ H_ 0.714938 0.971767 0.219611 0.0
C_ C_ 0.772014 0.539998 0.227052 0.0
C_ C_ 0.762653 0.570771 0.207483 0.0
C_ C_ 0.715187 0.588822 0.210019 0.0
C_ C_ 0.706251 0.617352 0.190542 0.0
C_ C_ 0.747771 0.63051 0.171853 0.0
C_ C_ 0.794133 0.613273 0.169669 0.0
C_ C_ 0.800068 0.581574 0.185219 0.0
C_ C_ 0.814769 0.620719 0.141473 0.0
C_ C_ 0.742217 0.648598 0.145016 0.0
C_ C_ 0.830943 0.730298 0.0920919 0.0
C_ C_ 0.80574 0.705623 0.111814 0.0
C_ C_ 0.804812 0.669032 0.105206 0.0
C_ C_ 0.829843 0.658066 0.0790275 0.0
C_ C_ 0.853144 0.683656 0.0593936 0.0
C_ C_ 0.968039 0.53623 0.167278 0.0
C_ C_ 0.998734 0.544726 0.139664 0.0
C_ C_ 0.717739 0.533773 0.136493 0.0
C_ C_ 0.746686 0.541779 0.110068 0.0
C_ C_ 0.721104 0.557109 0.0859562 0.0
C_ C_ 0.00327863 0.568029 0.0889766 0.0
C_ C_ 0.975938 0.56379 0.116129 0.0
C_ C_ 0.746357 0.579403 0.0648629 0.0
C_ C_ 0.999445 0.596676 0.0696897 0.0
C_ C_ 0.763715 0.657225 0.489051 0.0
C_ C_ 0.749875 0.62753 0.00700845 0.0
C_ C_ 0.725461 0.632198 0.0347975 0.0
C_ C_ 0.713699 0.666644 0.0436273 0.0
C_ C_ 0.727456 0.695648 0.0247575 0.0
C_ C_ 0.894653 0.710002 0.477052 0.0
C_ C_ 0.904014 0.679229 0.457483 0.0
C_ C_ 0.95148 0.661178 0.460019 0.0
C_ C_ 0.960415 0.632648 0.440542 0.0
C_ C_ 0.918896 0.61949 0.421853 0.0
C_ C_ 0.872534 0.636727 0.419669 0.0
C_ C_ 0.866599 0.668426 0.435219 0.0
C_ C_ 0.851898 0.629281 0.391473 0.0
C_ C_ 0.924449 0.601402 0.395016 0.0
C_ C_ 0.835724 0.519702 0.342092 0.0
C_ C_ 0.860926 0.544377 0.361814 0.0
C_ C_ 0.861855 0.580968 0.355206 0.0
C_ C_ 0.836823 0.591934 0.329027 0.0
C_ C_ 0.813523 0.566344 0.309394 0.0
C_ C_ 0.698628 0.71377 0.417278 0.0
C_ C_ 0.667933 0.705274 0.389664 0.0
C_ C_ 0.948927 0.716227 0.386493 0.0
C_ C_ 0.91998 0.708221 0.360068 0.0
C_ C_ 0.945562 0.692891 0.335956 0.0
C_ C_ 0.663388 0.681971 0.338977 0.0
C_ C_ 0.690729 0.68621 0.366129 0.0
C_ C_ 0.92031 0.670597 0.314863 0.0
C_ C_ 0.667221 0.653324 0.31969 0.0
C_ C_ 0.902952 0.592775 0.239051 0.0
C_ C_ 0.916792 0.62247 0.257008 0.0
C_ C_ 0.941206 0.617802 0.284798 0.0
C_ C_ 0.952968 0.583356 0.293627 0.0
C_ C_ 0.93921 0.554352 0.274758 0.0
C_ C_ 0.894653 0.960002 0.272948 0.0
C_ C_ 0.904014 0.929229 0.292517 0.0
C_ C_ 0.95148 0.911178 0.289981 0.0
C_ C_ 0.960415 0.882648 0.309458 0.0
C_ C_ 0.918896 0.86949 0.328147 0.0
C_ C_ 0.872534 0.886727 0.330331 0.0
C_ C_ 0.866599 0.918426 0.314781 0.0
C_ C_ 0.851898 0.879281 0.358527 0.0
C_ C_ 0.924449 0.851402 0.354984 0.0
C_ C_ 0.835724 0.769702 0.407908 0.0
C_ C_ 0.860926 0.794377 0.388186 0.0
C_ C_ 0.861855 0.830968 0.394794 0.0
C_ C_ 0.836823 0.841934 0.420973 0.0
C_ C_ 0.813523 0.816344 0.440606 0.0
C_ C_ 0.698628 0.96377 0.332722 0.0
C_ C_ 0.667933 0.955274 0.360336 0.0
C_ C_ 0.948927 0.966227 0.363507 0.0
C_ C_ 0.91998 0.958221 0.389932 0.0
C_ C_ 0.945562 0.942891 0.414044 0.0
C_ C_ 0.663388 0.931971 0.411023 0.0
C_ C_ 0.690729 0.93621 0.383871 0.0
C_ C_ 0.92031 0.920597 0.435137 0.0
C_ C_ 0.667221 0.903324 0.43031 0.0
C_ C_ 0.902952 0.842775 0.010949 0.0
C_ C_ 0.916792 0.87247 0.492992 0.0
C_ C_ 0.941206 0.867802 0.465202 0.0
C_ C_ 0.952968 0.833356 0.456373 0.0
C_ C_ 0.93921 0.804352 0.475242 0.0
C_ C_ 0.772014 0.789998 0.0229477 0.0
C_ C_ 0.762653 0.820771 0.0425173 0.0
C_ C_ 0.715187 0.838822 0.0399812 0.0
C_ C_ 0.706251 0.867352 0.0594584 0.0
C_ C_ 0.747771 0.88051 0.0781469 0.0
C_ C_ 0.794133 0.863273 0.0803307 0.0
C_ C_ 0.800068 0.831574 0.0647812 0.0
C_ C_ 0.814769 0.870719 0.108527 0.0
C_ C_ 0.742217 0.898598 0.104984 0.0
C_ C_ 0.830943 0.980298 0.157908 0.0
C_ C_ 0.80574 0.955623 0.138186 0.0
C_ C_ 0.804812 0.919032 0.144794 0.0
C_ C_ 0.829843 0.908066 0.170973 0.0
C_ C_ 0.853144 0.933656 0.190606 0.0
C_ C_ 0.968039 0.78623 0.0827219 0.0
C_ C_ 0.998734 0.794726 0.110336 0.0
C_ C_ 0.717739 0.783773 0.113507 0.0
C_ C_ 0.746686 0.791779 0.139932 0.0
C_ C_ 0.721104 0.807109 0.164044 0.0
C_ C_ 0.00327862 0.818029 0.161023 0.0
C_ C_ 0.975938 0.81379 0.133871 0.0
C_ C_ 0.746357 0.829403 0.185137 0.0
C_ C_ 0.999445 0.846676 0.18031 0.0
C_ C_ 0.763715 0.907225 0.260949 0.0
C_ C_ 0.749875 0.87753 0.242992 0.0
C_ C_ 0.725461 0.882198 0.215202 0.0
C_ C_ 0.713699 0.916644 0.206373 0.0
C_ C_ 0.727456 0.945648 0.225242 0.0
N_ N_ 0.852935 0.719087 0.066102 0.0
N_ N_ 0.783611 0.642872 0.126543 0.0
N_ N_ 0.711527 0.601806 0.0536496 0.0
N_ N_ 0.754235 0.690701 0.9986 0.0
N_ N_ 0.813732 0.530913 0.316102 0.0
N_ N_ 0.883056 0.607128 0.376543 0.0
N_ N_ 0.95514 0.648194 0.30365 0.0
N_ N_ 0.912431 0.559299 0.2486 0.0
N_ N_ 0.813732 0.780913 0.433898 0.0
N_ N_ 0.883056 0.857128 0.373457 0.0
N_ N_ 0.95514 0.898194 0.44635 0.0
N_ N_ 0.912431 0.809299 0.5014 0.0
N_ N_ 0.852935 0.969087 0.183898 0.0
N_ N_ 0.783611 0.892872 0.123457 0.0
N_ N_ 0.711527 0.851806 0.19635 0.0
N_ N_ 0.754235 0.940701 0.2514 0.0
O_ O_ 0.79885 0.514997 0.217173 0.0
O_ O_ 0.743984 0.534476 0.250578 0.0
O_ O_ 0.695457 0.655721 0.134274 0.0
O_ O_ 0.865986 0.620132 0.13586 0.0
O_ O_ 0.925653 0.551058 0.172831 0.0
O_ O_ 0.978891 0.510599 0.184197 0.0
O_ O_ 0.95354 0.605994 0.059287 0.0
O_ O_ 0.78749 0.569983 0.0492879 0.0
O_ O_ 0.867816 0.735003 0.467173 0.0
O_ O_ 0.922682 0.715524 0.000578323 0.0
O_ O_ 0.97121 0.594279 0.384274 0.0
O_ O_ 0.80068 0.629868 0.38586 0.0
O_ O_ 0.741013 0.698942 0.422831 0.0
O_ O_ 0.687776 0.739401 0.434197 0.0
O_ O_ 0.713127 0.644007 0.309287 0.0
O_ O_ 0.879177 0.680017 0.299288 0.0
O_ O_ 0.867816 0.985003 0.282827 0.0
O_ O_ 0.922682 0.965524 0.249422 0.0
O_ O_ 0.97121 0.844279 0.365726 0.0
O_ O_ 0.80068 0.879868 0.36414 0.0
O_ O_ 0.741013 0.948942 0.327169 0.0
O_ O_ 0.687776 0.989401 0.315803 0.0
O_ O_ 0.713127 0.894007 0.440713 0.0
O_ O_ 0.879177 0.930017 0.450712 0.0
O_ O_ 0.79885 0.764997 0.032827 0.0
O_ O_ 0.743984 0.784476 0.499422 0.0
O_ O_ 0.695457 0.905721 0.115726 0.0
O_ O_ 0.865986 0.870132 0.11414 0.0
O_ O_ 0.925653 0.801058 0.0771694 0.0
O_ O_ 0.978891 0.760599 0.0658027 0.0
O_ O_ 0.95354 0.855994 0.190713 0.0
O_ O_ 0.78749 0.819983 0.200712 0.0
Cd Cd 0.896835 0.511719 0.71467 0.0
Cd Cd 0.769832 0.738281 0.96467 0.0
Cd Cd 0.769832 0.988281 0.78533 0.0
Cd Cd 0.896835 0.761719 0.53533 0.0
H_ H_ 0.684627 0.579745 0.725897 0.0
H_ H_ 0.00143727 0.629013 0.690298 0.0
H_ H_ 0.832225 0.565178 0.679747 0.0
H_ H_ 0.833728 0.758413 0.597662 0.0
H_ H_ 0.78881 0.714791 0.632561 0.0
H_ H_ 0.832514 0.629969 0.574356 0.0
H_ H_ 0.872183 0.675225 0.5391 0.0
H_ H_ 0.736312 0.52026 0.654784 0.0
H_ H_ 0.788447 0.536785 0.608694 0.0
H_ H_ 0.937697 0.574876 0.618937 0.0
H_ H_ 0.778699 0.653364 0.96672 0.0
H_ H_ 0.756465 0.600974 0.498905 0.0
H_ H_ 0.693888 0.670902 0.564808 0.0
H_ H_ 0.714938 0.721767 0.530389 0.0
H_ H_ 0.98204 0.670255 0.975897 0.0
H_ H_ 0.665229 0.620987 0.940298 0.0
H_ H_ 0.834442 0.684822 0.929747 0.0
H_ H_ 0.832939 0.991587 0.847662 0.0
H_ H_ 0.877857 0.535209 0.882561 0.0
H_ H_ 0.834153 0.620031 0.824356 0.0
H_ H_ 0.794483 0.574775 0.7891 0.0
H_ H_ 0.930355 0.72974 0.904784 0.0
H_ H_ 0.87822 0.713215 0.858694 0.0
H_ H_ 0.728969 0.675124 0.868937 0.0
H_ H_ 0.887968 0.596636 0.71672 0.0
H_ H_ 0.910202 0.649026 0.748905 0.0
H_ H_ 0.972779 0.579098 0.814808 0.0
H_ H_ 0.951728 0.528233 0.780389 0.0
H_ H_ 0.98204 0.920255 0.774103 0.0
H_ H_ 0.665229 0.870987 0.809702 0.0
H_ H_ 0.834442 0.934822 0.820253 0.0
H_ H_ 0.832939 0.741587 0.902338 0.0
H_ H_ 0.877857 0.785209 0.867439 0.0
H_ H_ 0.834153 0.870031 0.925644 0.0
H_ H_ 0.794483 0.824775 0.9609 0.0
H_ H_ 0.930355 0.97974 0.845216 0.0
H_ H_ 0.87822 0.963215 0.891306 0.0
H_ H_ 0.728969 0.925124 0.881063 0.0
H_ H_ 0.887968 0.846636 0.53328 0.0
H_ H_ 0.910202 0.899026 0.00109454 0.0
H_ H_ 0.972779 0.829098 0.935192 0.0
H_ H_ 0.951728 0.778233 0.969611 0.0
H_ H_ 0.684627 0.829745 0.524103 0.0
H_ H_ 0.00143726 0.879013 0.559702 0.0
H_ H_ 0.832225 0.815178 0.570253 0.0
H_ H_ 0.833728 0.508413 0.652338 0.0
H_ H_ 0.78881 0.964791 0.617439 0.0
H_ H_ 0.832514 0.879969 0.675644 0.0
H_ H_ 0.872183 0.925225 0.7109 0.0
H_ H_ 0.736312 0.77026 0.595216 0.0
H_ H_ 0.788447 0.786785 0.641306 0.0
H_ H_ 0.937697 0.824876 0.631063 0.0
H_ H_ 0.778699 0.903364 0.78328 0.0
H_ H_ 0.756465 0.850974 0.751095 0.0
H_ H_ 0.693888 0.920902 0.685192 0.0
H_ H_ 0.714938 0.971767 0.719611 0.0
C_ C_ 0.772014 0.539998 0.727052 0.0
C_ C_ 0.762653 0.570771 0.707483 0.0
C_ C_ 0.715187 0.588822 0.710019 0.0
C_ C_ 0.706251 0.617352 0.690542 0.0
C_ C_ 0.747771 0.63051 0.671853 0.0
C_ C_ 0.794133 0.613273 0.669669 0.0
C_ C_ 0.800068 0.581574 0.685219 0.0
C_ C_ 0.814769 0.620719 0.641473 0.0
C_ C_ 0.742217 0.648598 0.645016 0.0
C_ C_ 0.830943 0.730298 0.592092 0.0
C_ C_ 0.80574 0.705623 0.611814 0.0
C_ C_ 0.804812 0.669032 0.605206 0.0
C_ C_ 0.829843 0.658066 0.579027 0.0
C_ C_ 0.853144 0.683656 0.559394 0.0
C_ C_ 0.968039 0.53623 0.667278 0.0
C_ C_ 0.998734 0.544726 0.639664 0.0
C_ C_ 0.717739 0.533773 0.636493 0.0
C_ C_ 0.746686 0.541779 0.610068 0.0
C_ C_ 0.721104 0.557109 0.585956 0.0
C_ C_ 0.00327863 0.568029 0.588977 0.0
C_ C_ 0.975938 0.56379 0.616129 0.0
C_ C_ 0.746357 0.579403 0.564863 0.0
C_ C_ 0.999445 0.596676 0.56969 0.0
C_ C_ 0.763715 0.657225 0.989051 0.0
C_ C_ 0.749875 0.62753 0.507008 0.0
C_ C_ 0.725461 0.632198 0.534798 0.0
C_ C_ 0.713699 0.666644 0.543627 0.0
C_ C_ 0.727456 0.695648 0.524758 0.0
C_ C_ 0.894653 0.710002 0.977052 0.0
C_ C_ 0.904014 0.679229 0.957483 0.0
C_ C_ 0.95148 0.661178 0.960019 0.0
C_ C_ 0.960415 0.632648 0.940542 0.0
C_ C_ 0.918896 0.61949 0.921853 0.0
C_ C_ 0.872534 0.636727 0.919669 0.0
C_ C_ 0.866599 0.668426 0.935219 0.0
C_ C_ 0.851898 0.629281 0.891473 0.0
C_ C_ 0.924449 0.601402 0.895016 0.0
C_ C_ 0.835724 0.519702 0.842092 0.0
C_ C_ 0.860926 0.544377 0.861814 0.0
C_ C_ 0.861855 0.580968 0.855206 0.0
C_ C_ 0.836823 0.591934 0.829027 0.0
C_ C_ 0.813523 0.566344 0.809394 0.0
C_ C_ 0.698628 0.71377 0.917278 0.0
C_ C_ 0.667933 0.705274 0.889664 0.0
C_ C_ 0.948927 0.716227 0.886493 0.0
C_ C_ 0.91998 0.708221 0.860068 0.0
C_ C_ 0.945562 0.692891 0.835956 0.0
C_ C_ 0.663388 0.681971 0.838977 0.0
C_ C_ 0.690729 0.68621 0.866129 0.0
C_ C_ 0.92031 0.670597 0.814863 0.0
C_ C_ 0.667221 0.653324 0.81969 0.0
C_ C_ 0.902952 0.592775 0.739051 0.0
C_ C_ 0.916792 0.62247 0.757008 0.0
C_ C_ 0.941206 0.617802 0.784798 0.0
C_ C_ 0.952968 0.583356 0.793627 0.0
C_ C_ 0.93921 0.554352 0.774758 0.0
C_ C_ 0.894653 0.960002 0.772948 0.0
C_ C_ 0.904014 0.929229 0.792517 0.0
C_ C_ 0.95148 0.911178 0.789981 0.0
C_ C_ 0.960415 0.882648 0.809458 0.0
C_ C_ 0.918896 0.86949 0.828147 0.0
C_ C_ 0.872534 0.886727 0.830331 0.0
C_ C_ 0.866599 0.918426 0.814781 0.0
C_ C_ 0.851898 0.879281 0.858527 0.0
C_ C_ 0.924449 0.851402 0.854984 0.0
C_ C_ 0.835724 0.769702 0.907908 0.0
C_ C_ 0.860926 0.794377 0.888186 0.0
C_ C_ 0.861855 0.830968 0.894794 0.0
C_ C_ 0.836823 0.841934 0.920973 0.0
C_ C_ 0.813523 0.816344 0.940606 0.0
C_ C_ 0.698628 0.96377 0.832722 0.0
C_ C_ 0.667933 0.955274 0.860336 0.0
C_ C_ 0.948927 0.966227 0.863507 0.0
C_ C_ 0.91998 0.958221 0.889932 0.0
C_ C_ 0.945562 0.942891 0.914044 0.0
C_ C_ 0.663388 0.931971 0.911023 0.0
C_ C_ 0.690729 0.93621 0.883871 0.0
C_ C_ 0.92031 0.920597 0.935137 0.0
C_ C_ 0.667221 0.903324 0.93031 0.0
C_ C_ 0.902952 0.842775 0.510949 0.0
C_ C_ 0.916792 0.87247 0.992992 0.0
C_ C_ 0.941206 0.867802 0.965202 0.0
C_ C_ 0.952968 0.833356 0.956373 0.0
C_ C_ 0.93921 0.804352 0.975242 0.0
C_ C_ 0.772014 0.789998 0.522948 0.0
C_ C_ 0.762653 0.820771 0.542517 0.0
C_ C_ 0.715187 0.838822 0.539981 0.0
C_ C_ 0.706251 0.867352 0.559458 0.0
C_ C_ 0.747771 0.88051 0.578147 0.0
C_ C_ 0.794133 0.863273 0.580331 0.0
C_ C_ 0.800068 0.831574 0.564781 0.0
C_ C_ 0.814769 0.870719 0.608527 0.0
C_ C_ 0.742217 0.898598 0.604984 0.0
C_ C_ 0.830943 0.980298 0.657908 0.0
C_ C_ 0.80574 0.955623 0.638186 0.0
C_ C_ 0.804812 0.919032 0.644794 0.0
C_ C_ 0.829843 0.908066 0.670973 0.0
C_ C_ 0.853144 0.933656 0.690606 0.0
C_ C_ 0.968039 0.78623 0.582722 0.0
C_ C_ 0.998734 0.794726 0.610336 0.0
C_ C_ 0.717739 0.783773 0.613507 0.0
C_ C_ 0.746686 0.791779 0.639932 0.0
C_ C_ 0.721104 0.807109 0.664044 0.0
C_ C_ 0.00327862 0.818029 0.661023 0.0
C_ C_ 0.975938 0.81379 0.633871 0.0
C_ C_ 0.746357 0.829403 0.685137 0.0
C_ C_ 0.999445 0.846676 0.68031 0.0
C_ C_ 0.763715 0.907225 0.760949 0.0
C_ C_ 0.749875 0.87753 0.742992 0.0
C_ C_ 0.725461 0.882198 0.715202 0.0
C_ C_ 0.713699 0.916644 0.706373 0.0
C_ C_ 0.727456 0.945648 0.725242 0.0
N_ N_ 0.852935 0.719087 0.566102 0.0
N_ N_ 0.783611 0.642872 0.626543 0.0
N_ N_ 0.711527 0.601806 0.55365 0.0
N_ N_ 0.754235 0.690701 0.4986 0.0
N_ N_ 0.813732 0.530913 0.816102 0.0
N_ N_ 0.883056 0.607128 0.876543 0.0
N_ N_ 0.95514 0.648194 0.80365 0.0
N_ N_ 0.912431 0.559299 0.7486 0.0
N_ N_ 0.813732 0.780913 0.933898 0.0
N_ N_ 0.883056 0.857128 0.873457 0.0
N_ N_ 0.95514 0.898194 0.94635 0.0
N_ N_ 0.912431 0.809299 0.00139979 0.0
N_ N_ 0.852935 0.969087 0.683898 0.0
N_ N_ 0.783611 0.892872 0.623457 0.0
N_ N_ 0.711527 0.851806 0.69635 0.0
N_ N_ 0.754235 0.940701 0.7514 0.0
O_ O_ 0.79885 0.514997 0.717173 0.0
O_ O_ 0.743984 0.534476 0.750578 0.0
O_ O_ 0.695457 0.655721 0.634274 0.0
O_ O_ 0.865986 0.620132 0.63586 0.0
O_ O_ 0.925653 0.551058 0.672831 0.0
O_ O_ 0.978891 0.510599 0.684197 0.0
O_ O_ 0.95354 0.605994 0.559287 0.0
O_ O_ 0.78749 0.569983 0.549288 0.0
O_ O_ 0.867816 0.735003 0.967173 0.0
O_ O_ 0.922682 0.715524 0.500578 0.0
O_ O_ 0.97121 0.594279 0.884274 0.0
O_ O_ 0.80068 0.629868 0.88586 0.0
O_ O_ 0.741013 0.698942 0.922831 0.0
O_ O_ 0.687776 0.739401 0.934197 0.0
O_ O_ 0.713127 0.644007 0.809287 0.0
O_ O_ 0.879177 0.680017 0.799288 0.0
O_ O_ 0.867816 0.985003 0.782827 0.0
O_ O_ 0.922682 0.965524 0.749422 0.0
O_ O_ 0.97121 0.844279 0.865726 0.0
O_ O_ 0.80068 0.879868 0.86414 0.0
O_ O_ 0.741013 0.948942 0.827169 0.0
O_ O_ 0.687776 0.989401 0.815803 0.0
O_ O_ 0.713127 0.894007 0.940713 0.0
O_ O_ 0.879177 0.930017 0.950712 0.0
O_ O_ 0.79885 0.764997 0.532827 0.0
O_ O_ 0.743984 0.784476 0.999422 0.0
O_ O_ 0.695457 0.905721 0.615726 0.0
O_ O_ 0.865986 0.870132 0.61414 0.0
O_ O_ 0.925653 0.801058 0.577169 0.0
O_ O_ 0.978891 0.760599 0.565803 0.0
O_ O_ 0.95354 0.855994 0.690713 0.0
O_ O_ 0.78749 0.819983 0.700712 0.0
