_cell_length_a 25.179
_cell_length_b 37.484199844079754
_cell_length_c 44.4702
_cell_angle_alpha 90.0
_cell_angle_beta 90.0
_cell_angle_gamma 94.03100043039683
_symmetry_space_group_name_H-M         'P 1'
_symmetry_Int_Tables_number            1
loop_
_symmetry_equiv_pos_as_xyz
   'x, y, z'
                         
loop_
_atom_site_label
_atom_site_type_symbol
_atom_site_fract_x 
_atom_site_fract_y
_atom_site_fract_z
_atom_site_charge
Cd Cd 0.229575 0.0122237 0.213779 0.0
Cd Cd 0.102388 0.238637 0.462741 0.0
Cd Cd 0.104669 0.487082 0.284793 0.0
Cd Cd 0.225795 0.260165 0.0367585 0.0
H_ H_ 0.0244486 0.0857102 0.231822 0.0
H_ H_ 0.349553 0.143862 0.207156 0.0
H_ H_ 0.166057 0.0627514 0.183619 0.0
H_ H_ 0.189329 0.265447 0.104953 0.0
H_ H_ 0.153762 0.230112 0.146214 0.0
H_ H_ 0.152065 0.137963 0.0873671 0.0
H_ H_ 0.171826 0.179586 0.0445871 0.0
H_ H_ 0.0677393 0.0149148 0.151756 0.0
H_ H_ 0.124334 0.0420182 0.110186 0.0
H_ H_ 0.273252 0.0782712 0.122858 0.0
H_ H_ 0.106608 0.152921 0.465647 0.0
H_ H_ 0.0940012 0.0997102 0.99968 0.0
H_ H_ 0.00121569 0.16839 0.050882 0.0
H_ H_ 0.0469939 0.220398 0.0230869 0.0
H_ H_ 0.314412 0.171698 0.471571 0.0
H_ H_ 0.999936 0.125101 0.436895 0.0
H_ H_ 0.167976 0.186076 0.424166 0.0
H_ H_ 0.15785 0.480422 0.349756 0.0
H_ H_ 0.198383 0.0418626 0.385354 0.0
H_ H_ 0.175202 0.116679 0.315379 0.0
H_ H_ 0.134489 0.0706233 0.283734 0.0
H_ H_ 0.268999 0.230405 0.396468 0.0
H_ H_ 0.220577 0.213824 0.347661 0.0
H_ H_ 0.0645623 0.183608 0.364495 0.0
H_ H_ 0.223621 0.101985 0.211612 0.0
H_ H_ 0.261239 0.152986 0.238853 0.0
H_ H_ 0.302249 0.0868694 0.311576 0.0
H_ H_ 0.284111 0.0330661 0.279208 0.0
H_ H_ 0.294275 0.40819 0.257148 0.0
H_ H_ 0.991925 0.364983 0.303642 0.0
H_ H_ 0.175877 0.436838 0.317832 0.0
H_ H_ 0.14864 0.320961 0.458189 0.0
H_ H_ 0.199147 0.365057 0.42137 0.0
H_ H_ 0.19504 0.281314 0.356223 0.0
H_ H_ 0.140703 0.243396 0.39302 0.0
H_ H_ 0.278877 0.484332 0.353274 0.0
H_ H_ 0.230012 0.463107 0.39926 0.0
H_ H_ 0.0592008 0.421098 0.381108 0.0
H_ H_ 0.199602 0.339692 0.0219068 0.0
H_ H_ 0.255686 0.397383 0.504827 0.0
H_ H_ 0.304004 0.327314 0.434342 0.0
H_ H_ 0.284027 0.278867 0.469115 0.0
H_ H_ 0.0212433 0.334491 0.0188128 0.0
H_ H_ 0.336692 0.37851 0.0559598 0.0
H_ H_ 0.164278 0.313937 0.0692238 0.0
H_ H_ 0.171716 0.0167723 0.148941 0.0
H_ H_ 0.152127 0.474192 0.108356 0.0
H_ H_ 0.136391 0.384166 0.170525 0.0
H_ H_ 0.190201 0.420888 0.207607 0.0
H_ H_ 0.0678974 0.263134 0.0979177 0.0
H_ H_ 0.118528 0.285647 0.14376 0.0
H_ H_ 0.264943 0.326668 0.130792 0.0
H_ H_ 0.111897 0.401783 0.282842 0.0
H_ H_ 0.084889 0.350509 0.252864 0.0
H_ H_ 0.0193999 0.418833 0.188073 0.0
H_ H_ 0.0414886 0.470396 0.224961 0.0
C_ C_ 0.102198 0.0382636 0.22899 0.0
C_ C_ 0.0950727 0.0690372 0.209427 0.0
C_ C_ 0.0499755 0.0893178 0.212697 0.0
C_ C_ 0.0370087 0.115027 0.190952 0.0
C_ C_ 0.0741599 0.120977 0.167425 0.0
C_ C_ 0.118435 0.103647 0.166066 0.0
C_ C_ 0.130331 0.0771229 0.185073 0.0
C_ C_ 0.155841 0.128091 0.153382 0.0
C_ C_ 0.0844048 0.153217 0.152118 0.0
C_ C_ 0.175033 0.237954 0.100148 0.0
C_ C_ 0.157022 0.216872 0.123468 0.0
C_ C_ 0.152299 0.180068 0.120395 0.0
C_ C_ 0.154525 0.166031 0.0916576 0.0
C_ C_ 0.171453 0.188408 0.0678324 0.0
C_ C_ 0.305904 0.0375549 0.169177 0.0
C_ C_ 0.329235 0.042699 0.1387 0.0
C_ C_ 0.0496216 0.0310235 0.135136 0.0
C_ C_ 0.0796251 0.0408838 0.108978 0.0
C_ C_ 0.0540229 0.056087 0.0851812 0.0
C_ C_ 0.328299 0.0658112 0.0892101 0.0
C_ C_ 0.306479 0.0636948 0.118114 0.0
C_ C_ 0.0802076 0.0806617 0.065748 0.0
C_ C_ 0.329042 0.0967952 0.0707178 0.0
C_ C_ 0.0959514 0.157381 0.488819 0.0
C_ C_ 0.0839871 0.126437 0.00569923 0.0
C_ C_ 0.0573487 0.131769 0.0333229 0.0
C_ C_ 0.0380223 0.166002 0.0371961 0.0
C_ C_ 0.0596526 0.194545 0.0200266 0.0
C_ C_ 0.227971 0.210184 0.472379 0.0
C_ C_ 0.238646 0.180839 0.452342 0.0
C_ C_ 0.284409 0.16295 0.455306 0.0
C_ C_ 0.293663 0.134786 0.435524 0.0
C_ C_ 0.252451 0.121069 0.416839 0.0
C_ C_ 0.207728 0.140042 0.414602 0.0
C_ C_ 0.201287 0.170759 0.430376 0.0
C_ C_ 0.185823 0.131713 0.38649 0.0
C_ C_ 0.258875 0.105847 0.38863 0.0
C_ C_ 0.166292 0.0209033 0.343782 0.0
C_ C_ 0.189774 0.0460759 0.361594 0.0
C_ C_ 0.193356 0.082831 0.352358 0.0
C_ C_ 0.178408 0.0900673 0.322386 0.0
C_ C_ 0.153715 0.0627354 0.305311 0.0
C_ C_ 0.0300896 0.212342 0.41725 0.0
C_ C_ 0.00144711 0.205894 0.388836 0.0
C_ C_ 0.286879 0.214429 0.379764 0.0
C_ C_ 0.262809 0.210242 0.350651 0.0
C_ C_ 0.292264 0.197304 0.327282 0.0
C_ C_ 0.995659 0.182476 0.337643 0.0
C_ C_ 0.0263642 0.189429 0.36376 0.0
C_ C_ 0.272108 0.177582 0.302642 0.0
C_ C_ -0.000274333 0.154494 0.31959 0.0
C_ C_ 0.246009 0.0957975 0.232648 0.0
C_ C_ 0.268076 0.126393 0.247473 0.0
C_ C_ 0.288798 0.122655 0.27678 0.0
C_ C_ 0.290838 0.0899173 0.288923 0.0
C_ C_ 0.272544 0.0592371 0.272149 0.0
C_ C_ 0.226932 0.458316 0.267065 0.0
C_ C_ 0.241083 0.430621 0.289129 0.0
C_ C_ 0.279921 0.407775 0.281027 0.0
C_ C_ 0.29722 0.382293 0.301367 0.0
C_ C_ 0.270891 0.379232 0.330166 0.0
C_ C_ 0.228335 0.399216 0.335641 0.0
C_ C_ 0.213373 0.424997 0.315807 0.0
C_ C_ 0.195016 0.382251 0.357523 0.0
C_ C_ 0.265174 0.349362 0.348691 0.0
C_ C_ 0.163413 0.313261 0.436363 0.0
C_ C_ 0.184369 0.337754 0.415456 0.0
C_ C_ 0.197146 0.326773 0.387053 0.0
C_ C_ 0.184532 0.291367 0.37977 0.0
C_ C_ 0.161949 0.267296 0.400522 0.0
C_ C_ 0.0356193 0.466669 0.335125 0.0
C_ C_ 0.00399109 0.457178 0.362032 0.0
C_ C_ 0.299622 0.46862 0.371084 0.0
C_ C_ 0.272485 0.460705 0.398185 0.0
C_ C_ 0.296657 0.443093 0.420272 0.0
C_ C_ 0.997816 0.432037 0.411452 0.0
C_ C_ 0.0247326 0.437013 0.385078 0.0
C_ C_ 0.270261 0.421202 0.441679 0.0
C_ C_ 0.0007699999999999374 0.403075 0.429386 0.0
C_ C_ 0.223812 0.336383 0.00250589 0.0
C_ C_ 0.25811 0.371977 0.495849 0.0
C_ C_ 0.287128 0.367121 0.468704 0.0
C_ C_ 0.291016 0.332842 0.457839 0.0
C_ C_ 0.276858 0.303858 0.475571 0.0
C_ C_ 0.104083 0.291227 0.0214362 0.0
C_ C_ 0.0965673 0.321817 0.0408751 0.0
C_ C_ 0.0475444 0.338278 0.0385018 0.0
C_ C_ 0.0347206 0.363372 0.0609376 0.0
C_ C_ 0.068442 0.367394 0.0869423 0.0
C_ C_ 0.114333 0.352349 0.0877069 0.0
C_ C_ 0.130346 0.328837 0.0659493 0.0
C_ C_ 0.148224 0.373665 0.10595 0.0
C_ C_ 0.073284 0.397746 0.104117 0.0
C_ C_ 0.1707 0.483545 0.154262 0.0
C_ C_ 0.155845 0.462669 0.13053 0.0
C_ C_ 0.140564 0.426783 0.13678 0.0
C_ C_ 0.146239 0.413474 0.166057 0.0
C_ C_ 0.175138 0.43431 0.186873 0.0
C_ C_ 0.299452 0.289088 0.082464 0.0
C_ C_ 0.330839 0.300332 0.109694 0.0
C_ C_ 0.0504398 0.280304 0.114408 0.0
C_ C_ 0.0786768 0.292208 0.139722 0.0
C_ C_ 0.0528542 0.306696 0.163078 0.0
C_ C_ 0.330513 0.322918 0.160906 0.0
C_ C_ 0.304737 0.319277 0.133247 0.0
C_ C_ 0.0778024 0.327785 0.186157 0.0
C_ C_ 0.322275 0.349073 0.182781 0.0
C_ C_ 0.100875 0.407029 0.259302 0.0
C_ C_ 0.0837273 0.376323 0.242419 0.0
C_ C_ 0.0573374 0.381015 0.215496 0.0
C_ C_ 0.038392 0.414013 0.208867 0.0
C_ C_ 0.0560446 0.443766 0.227467 0.0
N_ N_ 0.182057 0.22424 0.0730398 0.0
N_ N_ 0.135727 0.158315 0.145093 0.0
N_ N_ 0.0455434 0.103161 0.0541111 0.0
N_ N_ 0.0929893 0.189543 0.996237 0.0
N_ N_ 0.152361 0.0287582 0.315211 0.0
N_ N_ 0.215746 0.110582 0.370137 0.0
N_ N_ 0.306576 0.154392 0.292581 0.0
N_ N_ 0.244986 0.0627206 0.245759 0.0
N_ N_ 0.150802 0.27917 0.428111 0.0
N_ N_ 0.218499 0.351584 0.364692 0.0
N_ N_ 0.304442 0.398506 0.452705 0.0
N_ N_ 0.245645 0.309277 0.50102 0.0
N_ N_ 0.183742 0.469498 0.181945 0.0
N_ N_ 0.123162 0.402421 0.114066 0.0
N_ N_ 0.0444504 0.351554 0.195687 0.0
N_ N_ 0.0865387 0.439391 0.25125 0.0
O_ O_ 0.131781 0.0128032 0.221001 0.0
O_ O_ 0.0742352 0.0330122 0.252385 0.0
O_ O_ 0.0538163 0.179603 0.156235 0.0
O_ O_ 0.207743 0.123991 0.153265 0.0
O_ O_ 0.262226 0.0510186 0.174931 0.0
O_ O_ 0.317578 0.0112643 0.185978 0.0
O_ O_ 0.287535 0.108892 0.0606508 0.0
O_ O_ 0.126683 0.0757601 0.052702 0.0
O_ O_ 0.202509 0.235173 0.462671 0.0
O_ O_ 0.24463 0.207973 0.00398255 0.0
O_ O_ 0.303634 0.0957508 0.378144 0.0
O_ O_ 0.135725 0.135441 0.38124 0.0
O_ O_ 0.0701577 0.197251 0.422077 0.0
O_ O_ 0.0208449 0.238407 0.432733 0.0
O_ O_ 0.0455927 0.141866 0.310957 0.0
O_ O_ 0.219892 0.172047 0.300507 0.0
O_ O_ 0.201942 0.48513 0.275618 0.0
O_ O_ 0.25228 0.460457 0.242079 0.0
O_ O_ 0.288784 0.320691 0.345014 0.0
O_ O_ 0.142766 0.384873 0.358241 0.0
O_ O_ 0.0771305 0.450186 0.329462 0.0
O_ O_ 0.0230756 0.491191 0.317124 0.0
O_ O_ 0.0463428 0.392755 0.439976 0.0
O_ O_ 0.232794 0.435711 0.458989 0.0
O_ O_ 0.128856 0.265552 0.031426 0.0
O_ O_ 0.0766305 0.284475 0.497218 0.0
O_ O_ 0.0331636 0.409593 0.118896 0.0
O_ O_ 0.201275 0.375148 0.106027 0.0
O_ O_ 0.256103 0.30524 0.0753266 0.0
O_ O_ 0.307405 0.260242 0.0679827 0.0
O_ O_ 0.285474 0.369953 0.180961 0.0
O_ O_ 0.116253 0.317203 0.203605 0.0
Cd Cd 0.228742 0.0128186 0.715971 0.0
Cd Cd 0.102154 0.235731 0.964755 0.0
Cd Cd 0.0933873 0.490601 0.784189 0.0
Cd Cd 0.223792 0.260352 0.534349 0.0
H_ H_ 0.0173628 0.0807413 0.729239 0.0
H_ H_ 0.378888 0.157132 0.718615 0.0
H_ H_ 0.162778 0.0628409 0.678115 0.0
H_ H_ 0.156665 0.256527 0.598416 0.0
H_ H_ 0.139175 0.208573 0.637652 0.0
H_ H_ 0.161171 0.130238 0.571621 0.0
H_ H_ 0.196839 0.175353 0.536217 0.0
H_ H_ 0.0708774 0.0177517 0.654257 0.0
H_ H_ 0.120442 0.0336926 0.606922 0.0
H_ H_ 0.272714 0.0760038 0.618647 0.0
H_ H_ 0.113802 0.149648 0.964061 0.0
H_ H_ 0.101508 0.102223 0.501901 0.0
H_ H_ 0.0206959 0.170261 0.562858 0.0
H_ H_ 0.0513985 0.221094 0.530889 0.0
H_ H_ 0.286259 0.148286 0.9883 0.0
H_ H_ 0.99576 0.118433 0.942725 0.0
H_ H_ 0.175983 0.188433 0.923152 0.0
H_ H_ 0.140225 0.487976 0.851939 0.0
H_ H_ 0.19085 0.0415556 0.890236 0.0
H_ H_ 0.188696 0.117516 0.8176 0.0
H_ H_ 0.149453 0.0715839 0.784596 0.0
H_ H_ 0.274295 0.238898 0.891309 0.0
H_ H_ 0.244306 0.239192 0.840041 0.0
H_ H_ 0.0646692 0.178948 0.867635 0.0
H_ H_ 0.220113 0.0992267 0.713312 0.0
H_ H_ 0.253413 0.15312 0.742441 0.0
H_ H_ 0.312631 0.0839637 0.808079 0.0
H_ H_ 0.276931 0.0329247 0.777623 0.0
H_ H_ 0.21942 0.393944 0.741557 0.0
H_ H_ -0.00357399 0.368713 0.807564 0.0
H_ H_ 0.202702 0.44165 0.831161 0.0
H_ H_ 0.0637133 0.301624 0.933598 0.0
H_ H_ 0.0870139 0.347766 0.891068 0.0
H_ H_ 0.234495 0.296037 0.879437 0.0
H_ H_ 0.214761 0.259333 0.923526 0.0
H_ H_ 0.273553 0.490351 0.850419 0.0
H_ H_ 0.2205 0.471345 0.894994 0.0
H_ H_ 0.0625458 0.425203 0.878401 0.0
H_ H_ 0.21863 0.346138 0.533827 0.0
H_ H_ 0.21327 0.38793 0.983913 0.0
H_ H_ 0.296075 0.316181 0.928881 0.0
H_ H_ 0.297168 0.275025 0.975716 0.0
H_ H_ 0.0206916 0.334206 0.520356 0.0
H_ H_ 0.447106 0.417431 0.514726 0.0
H_ H_ 0.161797 0.314477 0.569775 0.0
H_ H_ 0.171464 0.00702234 0.652588 0.0
H_ H_ 0.135002 0.470439 0.610748 0.0
H_ H_ 0.162197 0.384616 0.673882 0.0
H_ H_ 0.188396 0.429023 0.711501 0.0
H_ H_ 0.0732227 0.277755 0.592194 0.0
H_ H_ 0.126131 0.290975 0.638606 0.0
H_ H_ 0.301193 0.353439 0.610203 0.0
H_ H_ 0.106161 0.406592 0.78007 0.0
H_ H_ 0.0787819 0.354095 0.751233 0.0
H_ H_ 0.0425736 0.422999 0.679284 0.0
H_ H_ 0.0351957 0.471455 0.718329 0.0
C_ C_ 0.101068 0.0381299 0.726785 0.0
C_ C_ 0.0943299 0.0699186 0.706931 0.0
C_ C_ 0.0436303 0.0881788 0.709754 0.0
C_ C_ 0.0361461 0.116175 0.69041 0.0
C_ C_ 0.0760374 0.127648 0.670464 0.0
C_ C_ 0.12033 0.109253 0.666931 0.0
C_ C_ 0.13317 0.0806666 0.684464 0.0
C_ C_ 0.142105 0.116282 0.63945 0.0
C_ C_ 0.0722937 0.146295 0.64326 0.0
C_ C_ 0.162052 0.22782 0.593567 0.0
C_ C_ 0.144208 0.201285 0.614752 0.0
C_ C_ 0.137806 0.166456 0.606133 0.0
C_ C_ 0.162451 0.15689 0.578834 0.0
C_ C_ 0.181285 0.183645 0.558814 0.0
C_ C_ 0.298595 0.0347796 0.667079 0.0
C_ C_ 0.33206 0.0448587 0.639971 0.0
C_ C_ 0.0505014 0.0302649 0.635391 0.0
C_ C_ 0.0798384 0.0407481 0.609686 0.0
C_ C_ 0.0539207 0.0562799 0.585385 0.0
C_ C_ 0.347149 0.0803728 0.594276 0.0
C_ C_ 0.31228 0.0682327 0.617402 0.0
C_ C_ 0.0769851 0.076445 0.562967 0.0
C_ C_ 0.345378 0.112742 0.579846 0.0
C_ C_ 0.102192 0.155217 0.987527 0.0
C_ C_ 0.0833417 0.128111 0.507143 0.0
C_ C_ 0.0555501 0.13164 0.533252 0.0
C_ C_ 0.0425281 0.166179 0.541616 0.0
C_ C_ 0.0596593 0.195794 0.523541 0.0
C_ C_ 0.22017 0.205127 0.979114 0.0
C_ C_ 0.234318 0.176266 0.957969 0.0
C_ C_ 0.269775 0.149236 0.965636 0.0
C_ C_ 0.283633 0.125703 0.943987 0.0
C_ C_ 0.26595 0.12876 0.914943 0.0
C_ C_ 0.229351 0.15188 0.907374 0.0
C_ C_ 0.209376 0.173295 0.928913 0.0
C_ C_ 0.205607 0.139888 0.881427 0.0
C_ C_ 0.265092 0.103208 0.893143 0.0
C_ C_ 0.154383 0.022073 0.847591 0.0
C_ C_ 0.184902 0.0478309 0.866342 0.0
C_ C_ 0.201243 0.0815227 0.85456 0.0
C_ C_ 0.185074 0.0906227 0.825434 0.0
C_ C_ 0.161106 0.0649882 0.806793 0.0
C_ C_ 0.0281257 0.212337 0.918106 0.0
C_ C_ -0.0014840000000000408 0.203967 0.890871 0.0
C_ C_ 0.293085 0.221635 0.876382 0.0
C_ C_ 0.2766 0.221573 0.846085 0.0
C_ C_ 0.300716 0.201792 0.82546 0.0
C_ C_ 0.99632 0.182399 0.839152 0.0
C_ C_ 0.0236461 0.18804 0.865947 0.0
C_ C_ 0.274606 0.181851 0.801747 0.0
C_ C_ 0.0005299999999999194 0.154494 0.819955 0.0
C_ C_ 0.236614 0.0967526 0.735346 0.0
C_ C_ 0.255033 0.127095 0.752056 0.0
C_ C_ 0.285945 0.122381 0.776921 0.0
C_ C_ 0.293638 0.0882167 0.78708 0.0
C_ C_ 0.272288 0.0585629 0.770076 0.0
C_ C_ 0.215756 0.458219 0.770576 0.0
C_ C_ 0.215317 0.422894 0.785587 0.0
C_ C_ 0.219634 0.391429 0.767359 0.0
C_ C_ 0.220578 0.356592 0.781467 0.0
C_ C_ 0.216939 0.354205 0.812996 0.0
C_ C_ 0.213946 0.385503 0.830578 0.0
C_ C_ 0.210249 0.419577 0.817106 0.0
C_ C_ 0.189892 0.375116 0.856472 0.0
C_ C_ 0.187206 0.327273 0.827882 0.0
C_ C_ 0.102136 0.301531 0.92183 0.0
C_ C_ 0.112606 0.323886 0.896907 0.0
C_ C_ 0.15771 0.318783 0.879707 0.0
C_ C_ 0.194854 0.295009 0.889956 0.0
C_ C_ 0.182541 0.274504 0.914264 0.0
C_ C_ 0.030674 0.46734 0.833513 0.0
C_ C_ 0.999299 0.455168 0.859606 0.0
C_ C_ 0.288538 0.471177 0.867002 0.0
C_ C_ 0.259522 0.462798 0.893559 0.0
C_ C_ 0.27865 0.438454 0.913772 0.0
C_ C_ 0.997981 0.432457 0.910628 0.0
C_ C_ 0.0252336 0.435952 0.882725 0.0
C_ C_ 0.246218 0.412506 0.929831 0.0
C_ C_ 0.00312286 0.404599 0.931834 0.0
C_ C_ 0.23542 0.342787 0.511467 0.0
C_ C_ 0.233368 0.362959 0.980652 0.0
C_ C_ 0.265179 0.356976 0.95536 0.0
C_ C_ 0.287225 0.324879 0.952219 0.0
C_ C_ 0.27918 0.299489 0.976442 0.0
C_ C_ 0.103228 0.289513 0.521155 0.0
C_ C_ 0.0958196 0.321896 0.540476 0.0
C_ C_ 0.0514915 0.342054 0.537022 0.0
C_ C_ 0.041836 0.370612 0.555893 0.0
C_ C_ 0.0805404 0.381053 0.574878 0.0
C_ C_ 0.125371 0.36299 0.579006 0.0
C_ C_ 0.131134 0.331562 0.564299 0.0
C_ C_ 0.149801 0.375349 0.60401 0.0
C_ C_ 0.0774889 0.40336 0.599471 0.0
C_ C_ 0.167373 0.485103 0.654527 0.0
C_ C_ 0.144032 0.461028 0.633425 0.0
C_ C_ 0.139193 0.424796 0.640241 0.0
C_ C_ 0.159206 0.413051 0.668167 0.0
C_ C_ 0.179723 0.437971 0.688478 0.0
C_ C_ 0.300293 0.289558 0.579285 0.0
C_ C_ 0.337539 0.302571 0.602109 0.0
C_ C_ 0.0524752 0.289019 0.611253 0.0
C_ C_ 0.0826874 0.295759 0.637917 0.0
C_ C_ 0.0574348 0.309999 0.662481 0.0
C_ C_ 0.364708 0.344472 0.640591 0.0
C_ C_ 0.333632 0.335484 0.616108 0.0
C_ C_ 0.0813439 0.3339 0.682661 0.0
C_ C_ 0.351241 0.368427 0.661691 0.0
C_ C_ 0.086868 0.409726 0.759584 0.0
C_ C_ 0.0768467 0.379989 0.742637 0.0
C_ C_ 0.0558496 0.384996 0.713726 0.0
C_ C_ 0.0451392 0.417731 0.703694 0.0
C_ C_ 0.0497805 0.446736 0.723481 0.0
N_ N_ 0.185013 0.218275 0.567816 0.0
N_ N_ 0.114587 0.140368 0.625357 0.0
N_ N_ 0.0435125 0.099834 0.552432 0.0
N_ N_ 0.0895649 0.191584 0.498182 0.0
N_ N_ 0.148752 0.0303953 0.818035 0.0
N_ N_ 0.226272 0.108309 0.874047 0.0
N_ N_ 0.305351 0.154113 0.794905 0.0
N_ N_ 0.239903 0.0629114 0.746137 0.0
N_ N_ 0.136598 0.27641 0.928918 0.0
N_ N_ 0.17023 0.340498 0.854614 0.0
N_ N_ 0.273861 0.384539 0.932748 0.0
N_ N_ 0.244418 0.304549 -0.002006999999999981 0.0
N_ N_ 0.187115 0.472299 0.681232 0.0
N_ N_ 0.118211 0.398222 0.617853 0.0
N_ N_ 0.0451419 0.354103 0.694667 0.0
N_ N_ 0.0732632 0.441706 0.750406 0.0
O_ O_ 0.130779 0.0141628 0.717286 0.0
O_ O_ 0.0764616 0.0327882 0.75159 0.0
O_ O_ 0.028047 0.156691 0.632834 0.0
O_ O_ 0.193335 0.113298 0.63472 0.0
O_ O_ 0.256545 0.0487216 0.671391 0.0
O_ O_ 0.310472 0.010756 0.684868 0.0
O_ O_ 0.303053 0.119794 0.564566 0.0
O_ O_ 0.12507 0.0741044 0.553381 0.0
O_ O_ 0.198615 0.232176 0.970332 0.0
O_ O_ 0.250133 0.213243 0.498316 0.0
O_ O_ 0.288231 0.0722482 0.895871 0.0
O_ O_ 0.155653 0.14493 0.874389 0.0
O_ O_ 0.0721215 0.19876 0.922249 0.0
O_ O_ 0.0148148 0.235084 0.937688 0.0
O_ O_ 0.0390182 0.131826 0.821399 0.0
O_ O_ 0.223196 0.18085 0.798858 0.0
O_ O_ 0.191581 0.483789 0.781449 0.0
O_ O_ 0.250044 0.465952 0.750186 0.0
O_ O_ 0.160295 0.299437 0.81423 0.0
O_ O_ 0.16586 0.398025 0.872488 0.0
O_ O_ 0.0715815 0.451189 0.826365 0.0
O_ O_ 0.0116524 0.488199 0.814934 0.0
O_ O_ 0.042928 0.382507 0.932515 0.0
O_ O_ 0.194232 0.40894 0.928137 0.0
O_ O_ 0.12901 0.265028 0.532569 0.0
O_ O_ 0.078256 0.287508 0.997386 0.0
O_ O_ 0.0368835 0.420779 0.607515 0.0
O_ O_ 0.183147 0.356334 0.620354 0.0
O_ O_ 0.256845 0.302865 0.573903 0.0
O_ O_ 0.308974 0.261764 0.563799 0.0
O_ O_ 0.324606 0.396467 0.65645 0.0
O_ O_ 0.123158 0.328008 0.698362 0.0
Cd Cd 0.233178 0.511685 0.213302 0.0
Cd Cd 0.103081 0.739597 0.463567 0.0
Cd Cd 0.105496 0.986112 0.284437 0.0
Cd Cd 0.230232 0.766027 0.0367144 0.0
H_ H_ 0.0207776 0.578359 0.227015 0.0
H_ H_ 0.332728 0.626328 0.188131 0.0
H_ H_ 0.163412 0.563573 0.178651 0.0
H_ H_ 0.187064 0.765545 0.104939 0.0
H_ H_ 0.145402 0.722528 0.143952 0.0
H_ H_ 0.154948 0.639969 0.0786058 0.0
H_ H_ 0.209947 0.678722 0.0475606 0.0
H_ H_ 0.0744076 0.52283 0.155586 0.0
H_ H_ 0.124309 0.537041 0.108872 0.0
H_ H_ 0.273178 0.580284 0.119965 0.0
H_ H_ 0.112887 0.652392 0.467383 0.0
H_ H_ 0.0866717 0.600565 1.00117403 0.0
H_ H_ 0.0326478 0.673501 0.0653237 0.0
H_ H_ 0.0419557 0.720013 0.0315266 0.0
H_ H_ 0.305799 0.664527 0.483679 0.0
H_ H_ 0.992542 0.616295 0.445182 0.0
H_ H_ 0.163373 0.678459 0.433971 0.0
H_ H_ 0.167335 0.992223 0.35275 0.0
H_ H_ 0.166611 0.520761 0.3949 0.0
H_ H_ 0.180275 0.611026 0.336771 0.0
H_ H_ 0.165141 0.571572 0.290939 0.0
H_ H_ 0.263233 0.722495 0.410684 0.0
H_ H_ 0.209939 0.708127 0.362445 0.0
H_ H_ 0.0591229 0.673603 0.368886 0.0
H_ H_ 0.226033 0.595721 0.218362 0.0
H_ H_ 0.23457 0.645806 0.255512 0.0
H_ H_ 0.304532 0.579659 0.319999 0.0
H_ H_ 0.293711 0.525691 0.282289 0.0
H_ H_ 0.306264 0.907437 0.263462 0.0
H_ H_ 1.00149 0.876089 0.314066 0.0
H_ H_ 0.17013 0.93312 0.315425 0.0
H_ H_ 0.158122 0.731919 0.398292 0.0
H_ H_ 0.183878 0.771428 0.357896 0.0
H_ H_ 0.183508 0.863884 0.415421 0.0
H_ H_ 0.152225 0.821399 0.456575 0.0
H_ H_ 0.264801 0.982089 0.343952 0.0
H_ H_ 0.212982 0.963009 0.389401 0.0
H_ H_ 0.0684047 0.932754 0.384619 0.0
H_ H_ 0.219836 0.847724 0.035041 0.0
H_ H_ 0.245882 0.898516 0.503842 0.0
H_ H_ 0.299597 0.824504 0.435495 0.0
H_ H_ 0.282512 0.776844 0.47313 0.0
H_ H_ 0.0131656 0.827348 0.0269163 0.0
H_ H_ 0.333963 0.878827 0.060104 0.0
H_ H_ 0.166583 0.816735 0.0642234 0.0
H_ H_ 0.178423 0.512551 0.151283 0.0
H_ H_ 0.143376 0.978209 0.106142 0.0
H_ H_ 0.175233 0.884792 0.158177 0.0
H_ H_ 0.211531 0.927209 0.199684 0.0
H_ H_ 0.069895 0.771866 0.0941408 0.0
H_ H_ 0.116786 0.784338 0.141053 0.0
H_ H_ 0.273997 0.829991 0.128059 0.0
H_ H_ 0.109811 0.898405 0.28584 0.0
H_ H_ 0.0878955 0.848009 0.254212 0.0
H_ H_ 0.0409157 0.92246 0.183562 0.0
H_ H_ 0.0582882 0.969817 0.221526 0.0
C_ C_ 0.107583 0.538969 0.229063 0.0
C_ C_ 0.0944686 0.567904 0.2061 0.0
C_ C_ 0.0453659 0.584964 0.207801 0.0
C_ C_ 0.0397543 0.617193 0.191622 0.0
C_ C_ 0.0830215 0.632517 0.175814 0.0
C_ C_ 0.132392 0.617189 0.174852 0.0
C_ C_ 0.134116 0.581769 0.186091 0.0
C_ C_ 0.151997 0.627669 0.147067 0.0
C_ C_ 0.0822727 0.656878 0.15214 0.0
C_ C_ 0.178271 0.738346 0.0995533 0.0
C_ C_ 0.15474 0.713824 0.120209 0.0
C_ C_ 0.143844 0.67797 0.112419 0.0
C_ C_ 0.161142 0.666695 0.0848466 0.0
C_ C_ 0.187053 0.691141 0.0650444 0.0
C_ C_ 0.303499 0.538568 0.168458 0.0
C_ C_ 0.334209 0.548024 0.140583 0.0
C_ C_ 0.0538609 0.534782 0.137239 0.0
C_ C_ 0.0820765 0.54391 0.111146 0.0
C_ C_ 0.0558214 0.556972 0.08673 0.0
C_ C_ 0.335969 0.567565 0.0883534 0.0
C_ C_ 0.311346 0.566286 0.116962 0.0
C_ C_ 0.0782845 0.576681 0.0636689 0.0
C_ C_ 0.330303 0.593082 0.0665716 0.0
C_ C_ 0.0986596 0.657908 0.489219 0.0
C_ C_ 0.081314 0.627543 0.00840078 0.0
C_ C_ 0.0607935 0.632574 0.0361341 0.0
C_ C_ 0.0469821 0.667316 0.0439998 0.0
C_ C_ 0.056106 0.695047 0.0244083 0.0
C_ C_ 0.222071 0.709115 0.477013 0.0
C_ C_ 0.233347 0.676921 0.46028 0.0
C_ C_ 0.277532 0.65551 0.467133 0.0
C_ C_ 0.284803 0.624749 0.449749 0.0
C_ C_ 0.256254 0.620807 0.422533 0.0
C_ C_ 0.215114 0.641242 0.415721 0.0
C_ C_ 0.200929 0.667575 0.435419 0.0
C_ C_ 0.181102 0.621465 0.396269 0.0
C_ C_ 0.245268 0.588455 0.408193 0.0
C_ C_ 0.162231 0.509208 0.347437 0.0
C_ C_ 0.17278 0.531308 0.371836 0.0
C_ C_ 0.184395 0.56738 0.367525 0.0
C_ C_ 0.179899 0.582391 0.338715 0.0
C_ C_ 0.166517 0.559797 0.314464 0.0
C_ C_ 0.0345037 0.716578 0.415814 0.0
C_ C_ 0.00178241 0.707091 0.38876 0.0
C_ C_ 0.280825 0.713294 0.388703 0.0
C_ C_ 0.251118 0.706455 0.361901 0.0
C_ C_ 0.276334 0.691791 0.336022 0.0
C_ C_ 0.997349 0.681858 0.338883 0.0
C_ C_ 0.0232903 0.686271 0.365419 0.0
C_ C_ 0.252609 0.667812 0.316562 0.0
C_ C_ 0.00239894 0.655336 0.317178 0.0
C_ C_ 0.242179 0.591545 0.239926 0.0
C_ C_ 0.245534 0.61905 0.260984 0.0
C_ C_ 0.273309 0.615136 0.287344 0.0
C_ C_ 0.288864 0.582264 0.296383 0.0
C_ C_ 0.280373 0.552581 0.276127 0.0
C_ C_ 0.233175 0.958146 0.268911 0.0
C_ C_ 0.240843 0.926978 0.288857 0.0
C_ C_ 0.284124 0.906089 0.28356 0.0
C_ C_ 0.299892 0.881585 0.306487 0.0
C_ C_ 0.265727 0.876335 0.331779 0.0
C_ C_ 0.222812 0.896967 0.335658 0.0
C_ C_ 0.207969 0.920827 0.313958 0.0
C_ C_ 0.186703 0.87612 0.353339 0.0
C_ C_ 0.255021 0.845313 0.349046 0.0
C_ C_ 0.164283 0.76034 0.402844 0.0
C_ C_ 0.181918 0.783386 0.379505 0.0
C_ C_ 0.187733 0.821091 0.383687 0.0
C_ C_ 0.178385 0.835032 0.41193 0.0
C_ C_ 0.162677 0.811225 0.435776 0.0
C_ C_ 0.0293763 0.961785 0.332546 0.0
C_ C_ 0.000994949 0.956066 0.361008 0.0
C_ C_ 0.283254 0.968929 0.364113 0.0
C_ C_ 0.255021 0.963277 0.391127 0.0
C_ C_ 0.279677 0.94192 0.413365 0.0
C_ C_ 0.99563 0.931728 0.411614 0.0
C_ C_ 0.0268961 0.939362 0.386278 0.0
C_ C_ 0.252485 0.919788 0.434329 0.0
C_ C_ 0.99929779 0.902248 0.430414 0.0
C_ C_ 0.233268 0.84483 0.0112914 0.0
C_ C_ 0.251149 0.871634 0.494528 0.0
C_ C_ 0.271984 0.865105 0.465915 0.0
C_ C_ 0.278291 0.830013 0.456377 0.0
C_ C_ 0.266299 0.801921 0.476493 0.0
C_ C_ 0.104583 0.790716 0.0225648 0.0
C_ C_ 0.0937572 0.821546 0.0407231 0.0
C_ C_ 0.0442013 0.83657 0.0420486 0.0
C_ C_ 0.0350023 0.864304 0.0625869 0.0
C_ C_ 0.0702688 0.871891 0.0847054 0.0
C_ C_ 0.118709 0.85728 0.0838381 0.0
C_ C_ 0.131071 0.831663 0.06295 0.0
C_ C_ 0.1545 0.877934 0.0988753 0.0
C_ C_ 0.0819556 0.905036 0.0979009 0.0
C_ C_ 0.172182 0.989074 0.151471 0.0
C_ C_ 0.151351 0.967615 0.128664 0.0
C_ C_ 0.153489 0.929987 0.130531 0.0
C_ C_ 0.173248 0.914616 0.156683 0.0
C_ C_ 0.1967 0.937319 0.179274 0.0
C_ C_ 0.306821 0.792163 0.0801993 0.0
C_ C_ 0.335461 0.798587 0.108897 0.0
C_ C_ 0.0502972 0.782625 0.113604 0.0
C_ C_ 0.0786944 0.790445 0.13993 0.0
C_ C_ 0.0537364 0.805852 0.164424 0.0
C_ C_ 0.336172 0.818682 0.160817 0.0
C_ C_ 0.311417 0.816598 0.132271 0.0
C_ C_ 0.0802312 0.827571 0.186549 0.0
C_ C_ 0.333366 0.846821 0.180611 0.0
C_ C_ 0.0988749 0.903408 0.262077 0.0
C_ C_ 0.0866251 0.874814 0.244014 0.0
C_ C_ 0.060292 0.881541 0.216595 0.0
C_ C_ 0.0557477 0.915887 0.206859 0.0
C_ C_ 0.0698368 0.943254 0.226281 0.0
N_ N_ 0.192664 0.727329 0.0720153 0.0
N_ N_ 0.122574 0.652226 0.134017 0.0
N_ N_ 0.0457969 0.601545 0.0548348 0.0
N_ N_ 0.0831506 0.690613 0.998614 0.0
N_ N_ 0.154231 0.523573 0.319984 0.0
N_ N_ 0.198737 0.588991 0.392513 0.0
N_ N_ 0.287267 0.646379 0.304984 0.0
N_ N_ 0.258288 0.558558 0.247752 0.0
N_ N_ 0.156813 0.774537 0.431283 0.0
N_ N_ 0.206683 0.844233 0.360107 0.0
N_ N_ 0.286772 0.89576 0.444685 0.0
N_ N_ 0.241726 0.808851 0.502844 0.0
N_ N_ 0.196422 0.973532 0.175863 0.0
N_ N_ 0.134119 0.908416 0.106726 0.0
N_ N_ 0.0452016 0.851368 0.196586 0.0
N_ N_ 0.0915905 0.936989 0.253119 0.0
O_ O_ 0.134465 0.51348 0.22154 0.0
O_ O_ 0.0826685 0.537534 0.253932 0.0
O_ O_ 0.0382258 0.667807 0.141732 0.0
O_ O_ 0.198671 0.62002 0.138342 0.0
O_ O_ 0.260656 0.551682 0.172951 0.0
O_ O_ 0.313443 0.511632 0.185519 0.0
O_ O_ 0.296602 0.616539 0.0701932 0.0
O_ O_ 0.127825 0.577744 0.0563217 0.0
O_ O_ 0.197077 0.73389 0.466629 0.0
O_ O_ 0.257599 0.717311 0.00133509 0.0
O_ O_ 0.281233 0.565731 0.40208 0.0
O_ O_ 0.129056 0.626773 0.395056 0.0
O_ O_ 0.0733571 0.697499 0.423176 0.0
O_ O_ 0.02972 0.74537 0.430508 0.0
O_ O_ 0.0379232 0.631404 0.318149 0.0
O_ O_ 0.205007 0.670176 0.306052 0.0
O_ O_ 0.201995 0.982328 0.275844 0.0
O_ O_ 0.260518 0.962514 0.245018 0.0
O_ O_ 0.28239 0.816213 0.345867 0.0
O_ O_ 0.136918 0.88157 0.355429 0.0
O_ O_ 0.0704618 0.945176 0.325493 0.0
O_ O_ 0.021655 0.987968 0.316393 0.0
O_ O_ 0.0463013 0.893521 0.441682 0.0
O_ O_ 0.213903 0.930921 0.450942 0.0
O_ O_ 0.129954 0.766153 0.0346484 0.0
O_ O_ 0.0826695 0.785681 0.497634 0.0
O_ O_ 0.0451059 0.922574 0.109334 0.0
O_ O_ 0.206408 0.876732 0.0953665 0.0
O_ O_ 0.268549 0.810451 0.0730765 0.0
O_ O_ 0.313537 0.76504 0.0640179 0.0
O_ O_ 0.289853 0.86275 0.187814 0.0
O_ O_ 0.117991 0.815931 0.203776 0.0
Cd Cd 0.230113 0.511587 0.714846 0.0
Cd Cd 0.103788 0.73761 0.963305 0.0
Cd Cd 0.107045 0.987921 0.785107 0.0
Cd Cd 0.2307 0.763722 0.537001 0.0
H_ H_ 0.0154722 0.579099 0.72474 0.0
H_ H_ 0.334486 0.62801 0.689449 0.0
H_ H_ 0.171326 0.574329 0.682353 0.0
H_ H_ 0.184639 0.769604 0.602651 0.0
H_ H_ 0.143713 0.732359 0.641998 0.0
H_ H_ 0.144623 0.642263 0.579518 0.0
H_ H_ 0.192855 0.682782 0.54515 0.0
H_ H_ 0.0661535 0.51561 0.652805 0.0
H_ H_ 0.119445 0.53352 0.607112 0.0
H_ H_ 0.269879 0.569432 0.617703 0.0
H_ H_ 0.103065 0.652028 0.965539 0.0
H_ H_ 0.102323 0.603149 0.503383 0.0
H_ H_ 0.0143936 0.669284 0.562013 0.0
H_ H_ 0.0320255 0.720502 0.524812 0.0
H_ H_ 0.310061 0.664455 0.980407 0.0
H_ H_ 0.99824062 0.6204 0.940496 0.0
H_ H_ 0.170361 0.685108 0.929682 0.0
H_ H_ 0.134853 0.995817 0.856011 0.0
H_ H_ 0.194749 0.526779 0.885447 0.0
H_ H_ 0.170531 0.615998 0.828552 0.0
H_ H_ 0.132008 0.574702 0.791157 0.0
H_ H_ 0.263718 0.730137 0.90455 0.0
H_ H_ 0.212801 0.716921 0.858302 0.0
H_ H_ 0.0590664 0.671998 0.869098 0.0
H_ H_ 0.237473 0.594622 0.714329 0.0
H_ H_ 0.259514 0.648701 0.74569 0.0
H_ H_ 0.302573 0.579436 0.817164 0.0
H_ H_ 0.27902 0.526679 0.782785 0.0
H_ H_ 0.320738 0.919802 0.77703 0.0
H_ H_ 1.00065 0.875921 0.813817 0.0
H_ H_ 0.168605 0.93792 0.81913 0.0
H_ H_ 0.147536 0.742376 0.891735 0.0
H_ H_ 0.202745 0.782725 0.860013 0.0
H_ H_ 0.184886 0.865397 0.92877 0.0
H_ H_ 0.147425 0.820449 0.964194 0.0
H_ H_ 0.26364 0.981764 0.845352 0.0
H_ H_ 0.20877 0.957334 0.886893 0.0
H_ H_ 0.0659664 0.928355 0.881082 0.0
H_ H_ 0.216769 0.846923 0.533955 0.0
H_ H_ 0.238645 0.898581 1.00078 0.0
H_ H_ 0.314132 0.830872 0.939608 0.0
H_ H_ 0.28563 0.780861 0.97208 0.0
H_ H_ 0.0162477 0.828595 0.524662 0.0
H_ H_ 0.338517 0.883333 0.555789 0.0
H_ H_ 0.168354 0.816753 0.568525 0.0
H_ H_ 0.167127 0.514656 0.650856 0.0
H_ H_ 0.121725 0.966004 0.617687 0.0
H_ H_ 0.16431 0.881134 0.674714 0.0
H_ H_ 0.204437 0.922611 0.711682 0.0
H_ H_ 0.0679208 0.767172 0.598166 0.0
H_ H_ 0.1246 0.797246 0.639257 0.0
H_ H_ 0.273135 0.825676 0.628868 0.0
H_ H_ 0.133997 0.904438 0.775023 0.0
H_ H_ 0.0920474 0.850603 0.748121 0.0
H_ H_ 0.0048600000000000865 0.920107 0.693456 0.0
H_ H_ 0.0343146 0.971605 0.72461 0.0
C_ C_ 0.104904 0.541514 0.726582 0.0
C_ C_ 0.0961582 0.571419 0.70662 0.0
C_ C_ 0.0449341 0.588155 0.708243 0.0
C_ C_ 0.0320987 0.612856 0.687009 0.0
C_ C_ 0.0657076 0.620942 0.662671 0.0
C_ C_ 0.115954 0.605284 0.660113 0.0
C_ C_ 0.1321 0.583077 0.683395 0.0
C_ C_ 0.150384 0.631836 0.647332 0.0
C_ C_ 0.0718915 0.65429 0.649158 0.0
C_ C_ 0.173704 0.742327 0.597005 0.0
C_ C_ 0.152588 0.720757 0.620513 0.0
C_ C_ 0.138643 0.684624 0.615142 0.0
C_ C_ 0.151328 0.669709 0.586648 0.0
C_ C_ 0.179721 0.693188 0.565626 0.0
C_ C_ 0.301143 0.537973 0.668896 0.0
C_ C_ 0.330782 0.544649 0.639755 0.0
C_ C_ 0.0491652 0.531092 0.635363 0.0
C_ C_ 0.0801219 0.54151 0.610006 0.0
C_ C_ 0.0534532 0.55709 0.586336 0.0
C_ C_ 0.335961 0.566732 0.588704 0.0
C_ C_ 0.306763 0.559968 0.61523 0.0
C_ C_ 0.0774389 0.576893 0.563831 0.0
C_ C_ 0.331945 0.595481 0.568542 0.0
C_ C_ 0.0935515 0.657289 0.989224 0.0
C_ C_ 0.0868916 0.62909 0.508073 0.0
C_ C_ 0.0576465 0.63265 0.534832 0.0
C_ C_ 0.0412876 0.666795 0.541816 0.0
C_ C_ 0.0509835 0.695326 0.521496 0.0
C_ C_ 0.228987 0.710487 0.977422 0.0
C_ C_ 0.235226 0.677562 0.958907 0.0
C_ C_ 0.281788 0.659464 0.961509 0.0
C_ C_ 0.29128 0.630141 0.942382 0.0
C_ C_ 0.249313 0.615188 0.924748 0.0
C_ C_ 0.203526 0.633153 0.922281 0.0
C_ C_ 0.197367 0.667398 0.937522 0.0
C_ C_ 0.181573 0.622815 0.89406 0.0
C_ C_ 0.253036 0.593647 0.899232 0.0
C_ C_ 0.150675 0.515963 0.845317 0.0
C_ C_ 0.179411 0.537767 0.865952 0.0
C_ C_ 0.188611 0.574931 0.858426 0.0
C_ C_ 0.172246 0.587247 0.831154 0.0
C_ C_ 0.145787 0.563734 0.811466 0.0
C_ C_ 0.0312516 0.713544 0.917563 0.0
C_ C_ 0.00117586 0.706631 0.889196 0.0
C_ C_ 0.284242 0.719956 0.885264 0.0
C_ C_ 0.255083 0.712346 0.858953 0.0
C_ C_ 0.279766 0.69359 0.836002 0.0
C_ C_ 0.996348 0.683242 0.839189 0.0
C_ C_ 0.0238543 0.687381 0.865761 0.0
C_ C_ 0.253864 0.671715 0.813978 0.0
C_ C_ 0.00180904 0.65474 0.818195 0.0
C_ C_ 0.247178 0.59218 0.738125 0.0
C_ C_ 0.258021 0.621694 0.756005 0.0
C_ C_ 0.273593 0.617397 0.785193 0.0
C_ C_ 0.282635 0.58253 0.795806 0.0
C_ C_ 0.268913 0.551702 0.775788 0.0
C_ C_ 0.23196 0.963209 0.774092 0.0
C_ C_ 0.241325 0.930879 0.793187 0.0
C_ C_ 0.287994 0.911448 0.790142 0.0
C_ C_ 0.29457 0.881622 0.808398 0.0
C_ C_ 0.253815 0.87019 0.827196 0.0
C_ C_ 0.205607 0.887009 0.828925 0.0
C_ C_ 0.201755 0.919938 0.814006 0.0
C_ C_ 0.18367 0.878236 0.856624 0.0
C_ C_ 0.256196 0.850417 0.853572 0.0
C_ C_ 0.155315 0.768566 0.900481 0.0
C_ C_ 0.18275 0.792057 0.881481 0.0
C_ C_ 0.192143 0.827914 0.890142 0.0
C_ C_ 0.177789 0.838716 0.920078 0.0
C_ C_ 0.155655 0.813041 0.93998 0.0
C_ C_ 0.0319411 0.962499 0.831599 0.0
C_ C_ 1.00284 0.957558 0.860345 0.0
C_ C_ 0.282532 0.968095 0.864163 0.0
C_ C_ 0.251742 0.955955 0.887363 0.0
C_ C_ 0.277535 0.941831 0.913348 0.0
C_ C_ 0.997693 0.933264 0.911742 0.0
C_ C_ 0.0254946 0.936963 0.88353 0.0
C_ C_ 0.251192 0.918439 0.932588 0.0
C_ C_ 0.00132351 0.904627 0.932032 0.0
C_ C_ 0.231901 0.842758 0.512018 0.0
C_ C_ 0.240257 0.872226 0.991604 0.0
C_ C_ 0.273295 0.868891 0.966193 0.0
C_ C_ 0.289186 0.835232 0.958872 0.0
C_ C_ 0.271653 0.806907 0.976676 0.0
C_ C_ 0.107465 0.78919 0.522132 0.0
C_ C_ 0.0970403 0.819047 0.541882 0.0
C_ C_ 0.0486158 0.837179 0.539814 0.0
C_ C_ 0.0399168 0.866538 0.560021 0.0
C_ C_ 0.084125 0.881825 0.576922 0.0
C_ C_ 0.13089 0.864164 0.579145 0.0
C_ C_ 0.135855 0.832363 0.56379 0.0
C_ C_ 0.150943 0.870468 0.607137 0.0
C_ C_ 0.079188 0.899402 0.604704 0.0
C_ C_ 0.162624 0.980819 0.658657 0.0
C_ C_ 0.142318 0.956578 0.636961 0.0
C_ C_ 0.14205 0.91946 0.643777 0.0
C_ C_ 0.160353 0.907769 0.671196 0.0
C_ C_ 0.182436 0.933673 0.692359 0.0
C_ C_ 0.303837 0.786696 0.583041 0.0
C_ C_ 0.333133 0.794323 0.611202 0.0
C_ C_ 0.0501495 0.782944 0.615584 0.0
C_ C_ 0.0808644 0.796048 0.63992 0.0
C_ C_ 0.0550105 0.809515 0.663777 0.0
C_ C_ 0.33672 0.817613 0.660477 0.0
C_ C_ 0.311017 0.814862 0.63242 0.0
C_ C_ 0.0794083 0.831591 0.684562 0.0
C_ C_ 0.333663 0.846213 0.67957 0.0
C_ C_ 0.10782 0.907649 0.756596 0.0
C_ C_ 0.086321 0.878144 0.741021 0.0
C_ C_ 0.0564498 0.883403 0.71531 0.0
C_ C_ 0.0371586 0.916448 0.710133 0.0
C_ C_ 0.0530709 0.945601 0.728778 0.0
N_ N_ 0.180443 0.729756 0.56938 0.0
N_ N_ 0.123567 0.661899 0.639606 0.0
N_ N_ 0.0447851 0.601749 0.553557 0.0
N_ N_ 0.0831805 0.690699 0.497088 0.0
N_ N_ 0.141039 0.528851 0.817451 0.0
N_ N_ 0.212012 0.599762 0.879731 0.0
N_ N_ 0.289437 0.647968 0.803543 0.0
N_ N_ 0.247589 0.558141 0.749102 0.0
N_ N_ 0.141419 0.779435 0.929757 0.0
N_ N_ 0.21338 0.854549 0.870321 0.0
N_ N_ 0.28699 0.899101 0.94639 0.0
N_ N_ 0.243482 0.812309 0.00253269 0.0
N_ N_ 0.177694 0.969932 0.686305 0.0
N_ N_ 0.120877 0.893723 0.621911 0.0
N_ N_ 0.0461407 0.855684 0.694542 0.0
N_ N_ 0.0879739 0.941031 0.751122 0.0
O_ O_ 0.133501 0.516922 0.719124 0.0
O_ O_ 0.0741772 0.536233 0.748913 0.0
O_ O_ 0.0311407 0.674339 0.643016 0.0
O_ O_ 0.191424 0.62336 0.631914 0.0
O_ O_ 0.256512 0.548943 0.672603 0.0
O_ O_ 0.316826 0.514445 0.686645 0.0
O_ O_ 0.286873 0.603732 0.557079 0.0
O_ O_ 0.129526 0.579335 0.559914 0.0
O_ O_ 0.20053 0.735592 0.967674 0.0
O_ O_ 0.250632 0.715488 0.500747 0.0
O_ O_ 0.298272 0.580767 0.889966 0.0
O_ O_ 0.148525 0.641866 0.879775 0.0
O_ O_ 0.0760538 0.700266 0.921828 0.0
O_ O_ 0.0209782 0.738003 0.935395 0.0
O_ O_ 0.0341902 0.630288 0.823256 0.0
O_ O_ 0.205939 0.675036 0.804021 0.0
O_ O_ 0.201081 0.986371 0.783515 0.0
O_ O_ 0.259541 0.969142 0.750169 0.0
O_ O_ 0.301429 0.845213 0.866492 0.0
O_ O_ 0.134296 0.879888 0.862852 0.0
O_ O_ 0.0694852 0.944372 0.823916 0.0
O_ O_ 0.0262797 0.990934 0.816974 0.0
O_ O_ 0.0454771 0.888489 0.940441 0.0
O_ O_ 0.205064 0.926039 0.944808 0.0
O_ O_ 0.132303 0.763329 0.532812 0.0
O_ O_ 0.0748681 0.782501 -0.0007709999999999662 0.0
O_ O_ 0.0311775 0.904366 0.616294 0.0
O_ O_ 0.199823 0.866421 0.615606 0.0
O_ O_ 0.267516 0.805607 0.574999 0.0
O_ O_ 0.311226 0.758439 0.568617 0.0
O_ O_ 0.290225 0.861752 0.684691 0.0
O_ O_ 0.120499 0.821915 0.700558 0.0
Cd Cd 0.565281 0.0127111 0.215338 0.0
Cd Cd 0.434639 0.239168 0.461389 0.0
Cd Cd 0.438098 0.488814 0.285678 0.0
Cd Cd 0.562573 0.262865 0.0347161 0.0
H_ H_ 0.372727 0.092594 0.239429 0.0
H_ H_ 0.665608 0.12631 0.18808 0.0
H_ H_ 0.490628 0.0642361 0.175084 0.0
H_ H_ 0.49544 0.26446 0.0954903 0.0
H_ H_ 0.448914 0.223297 0.132506 0.0
H_ H_ 0.499028 0.134304 0.0807799 0.0
H_ H_ 0.535284 0.175799 0.0437225 0.0
H_ H_ 0.397077 0.0132407 0.151703 0.0
H_ H_ 0.440417 0.0196969 0.100976 0.0
H_ H_ 0.602446 0.072372 0.116149 0.0
H_ H_ 0.473941 0.164957 0.484125 0.0
H_ H_ 0.424674 0.0982117 0.997196 0.0
H_ H_ 0.365629 0.170934 0.0665394 0.0
H_ H_ 0.377512 0.218138 0.0307156 0.0
H_ H_ 0.647156 0.168196 0.476425 0.0
H_ H_ 0.333618 0.12491 0.434869 0.0
H_ H_ 0.496508 0.181203 0.430131 0.0
H_ H_ 0.490969 0.49405 0.351154 0.0
H_ H_ 0.541676 0.0355434 0.385294 0.0
H_ H_ 0.500536 0.117944 0.32058 0.0
H_ H_ 0.467595 0.071521 0.288106 0.0
H_ H_ 0.595714 0.229651 0.404188 0.0
H_ H_ 0.550773 0.216193 0.354762 0.0
H_ H_ 0.409333 0.184312 0.362727 0.0
H_ H_ 0.54035 0.0971264 0.221924 0.0
H_ H_ 0.569556 0.148481 0.250518 0.0
H_ H_ 0.648234 0.0830341 0.311578 0.0
H_ H_ 0.630629 0.03256 0.276765 0.0
H_ H_ 0.644235 0.41495 0.266709 0.0
H_ H_ 0.327149 0.362512 0.295629 0.0
H_ H_ 0.502861 0.431545 0.318012 0.0
H_ H_ 0.487997 0.241172 0.395469 0.0
H_ H_ 0.542267 0.282164 0.360511 0.0
H_ H_ 0.513062 0.369013 0.423105 0.0
H_ H_ 0.466518 0.325526 0.455499 0.0
H_ H_ 0.599596 0.484627 0.346791 0.0
H_ H_ 0.550545 0.46901 0.396501 0.0
H_ H_ 0.406082 0.417108 0.381154 0.0
H_ H_ 0.559364 0.34677 0.0336807 0.0
H_ H_ 0.569095 0.398678 0.500262 0.0
H_ H_ 0.646251 0.330069 0.437128 0.0
H_ H_ 0.628246 0.279526 0.47157 0.0
H_ H_ 0.352303 0.330474 0.0214553 0.0
H_ H_ 0.673412 0.383851 0.0549302 0.0
H_ H_ 0.49729 0.315508 0.0683824 0.0
H_ H_ 0.501822 0.00891973 0.153494 0.0
H_ H_ 0.459184 0.465985 0.1153 0.0
H_ H_ 0.475444 0.382848 0.180106 0.0
H_ H_ 0.528703 0.42444 0.213351 0.0
H_ H_ 0.403287 0.272027 0.0988047 0.0
H_ H_ 0.447899 0.289649 0.144854 0.0
H_ H_ 0.605292 0.323933 0.130835 0.0
H_ H_ 0.443497 0.403433 0.28356 0.0
H_ H_ 0.413423 0.352168 0.250432 0.0
H_ H_ 0.351146 0.424352 0.186757 0.0
H_ H_ 0.380461 0.47639 0.219389 0.0
C_ C_ 0.440584 0.0410352 0.229186 0.0
C_ C_ 0.427686 0.0725492 0.209845 0.0
C_ C_ 0.3883 0.0956866 0.21776 0.0
C_ C_ 0.373119 0.122254 0.19811 0.0
C_ C_ 0.396236 0.12464 0.169715 0.0
C_ C_ 0.435176 0.101845 0.161003 0.0
C_ C_ 0.452257 0.0766187 0.180357 0.0
C_ C_ 0.466785 0.118242 0.139107 0.0
C_ C_ 0.403255 0.152686 0.150713 0.0
C_ C_ 0.491386 0.235344 0.0921215 0.0
C_ C_ 0.464585 0.211937 0.112702 0.0
C_ C_ 0.46705 0.17503 0.109815 0.0
C_ C_ 0.491338 0.162164 0.0835593 0.0
C_ C_ 0.515655 0.186633 0.0628505 0.0
C_ C_ 0.636202 0.0391361 0.167503 0.0
C_ C_ 0.664698 0.0443648 0.139239 0.0
C_ C_ 0.376587 0.0245628 0.131961 0.0
C_ C_ 0.401128 0.0292331 0.10455 0.0
C_ C_ 0.37543 0.0488207 0.0828596 0.0
C_ C_ 0.667815 0.065133 0.0875872 0.0
C_ C_ 0.640047 0.0600785 0.11421 0.0
C_ C_ 0.401795 0.0704959 0.0614027 0.0
C_ C_ 0.662081 0.0925093 0.0671541 0.0
C_ C_ 0.44083 0.167401 0.498486 0.0
C_ C_ 0.412445 0.123711 0.00657364 0.0
C_ C_ 0.389231 0.128942 0.0350631 0.0
C_ C_ 0.378686 0.164342 0.0437811 0.0
C_ C_ 0.391158 0.192384 0.0253329 0.0
C_ C_ 0.560047 0.211916 0.475684 0.0
C_ C_ 0.569292 0.178305 0.457049 0.0
C_ C_ 0.617134 0.159498 0.459906 0.0
C_ C_ 0.627545 0.132739 0.439457 0.0
C_ C_ 0.586231 0.120798 0.419098 0.0
C_ C_ 0.539359 0.137006 0.418111 0.0
C_ C_ 0.532077 0.16752 0.433576 0.0
C_ C_ 0.520009 0.130158 0.389416 0.0
C_ C_ 0.593725 0.103698 0.391566 0.0
C_ C_ 0.503309 0.017909 0.343591 0.0
C_ C_ 0.527056 0.0444779 0.363147 0.0
C_ C_ 0.531617 0.0808027 0.352623 0.0
C_ C_ 0.503686 0.0903697 0.327478 0.0
C_ C_ 0.481911 0.0630479 0.30868 0.0
C_ C_ 0.368794 0.214463 0.410996 0.0
C_ C_ 0.338272 0.203071 0.384171 0.0
C_ C_ 0.61621 0.21721 0.385412 0.0
C_ C_ 0.590794 0.212054 0.357217 0.0
C_ C_ 0.615943 0.195697 0.334846 0.0
C_ C_ 0.342086 0.186468 0.331398 0.0
C_ C_ 0.366558 0.18779 0.359788 0.0
C_ C_ 0.592462 0.176675 0.311149 0.0
C_ C_ 0.34927 0.158969 0.309843 0.0
C_ C_ 0.566171 0.0943714 0.240244 0.0
C_ C_ 0.577875 0.123779 0.258105 0.0
C_ C_ 0.607596 0.120689 0.283995 0.0
C_ C_ 0.621285 0.0860106 0.292171 0.0
C_ C_ 0.608807 0.0573063 0.273781 0.0
C_ C_ 0.563037 0.458822 0.271987 0.0
C_ C_ 0.576678 0.430927 0.292001 0.0
C_ C_ 0.619312 0.409823 0.286195 0.0
C_ C_ 0.628135 0.381354 0.306045 0.0
C_ C_ 0.586555 0.367596 0.323695 0.0
C_ C_ 0.540762 0.385092 0.326682 0.0
C_ C_ 0.537897 0.418698 0.313892 0.0
C_ C_ 0.519688 0.37548 0.354528 0.0
C_ C_ 0.591866 0.34777 0.349927 0.0
C_ C_ 0.498878 0.268159 0.402121 0.0
C_ C_ 0.526578 0.292505 0.382635 0.0
C_ C_ 0.531977 0.328849 0.390198 0.0
C_ C_ 0.514163 0.340894 0.417091 0.0
C_ C_ 0.486929 0.316645 0.43647 0.0
C_ C_ 0.375212 0.464434 0.335117 0.0
C_ C_ 0.349984 0.455267 0.365142 0.0
C_ C_ 0.615466 0.466737 0.36397 0.0
C_ C_ 0.589542 0.461181 0.391957 0.0
C_ C_ 0.616336 0.443672 0.414436 0.0
C_ C_ 0.345896 0.429013 0.415131 0.0
C_ C_ 0.370943 0.43105 0.386376 0.0
C_ C_ 0.589244 0.422143 0.435629 0.0
C_ C_ 0.351138 0.404236 0.436704 0.0
C_ C_ 0.572658 0.343823 0.00987702 0.0
C_ C_ 0.579258 0.372785 0.491563 0.0
C_ C_ 0.604865 0.368016 0.463796 0.0
C_ C_ 0.623752 0.335164 0.457453 0.0
C_ C_ 0.611217 0.305562 0.47694 0.0
C_ C_ 0.436854 0.289043 0.0204378 0.0
C_ C_ 0.429756 0.320994 0.0394781 0.0
C_ C_ 0.380196 0.335838 0.0390754 0.0
C_ C_ 0.371472 0.364494 0.0579785 0.0
C_ C_ 0.412273 0.37958 0.0755792 0.0
C_ C_ 0.460312 0.364157 0.0770854 0.0
C_ C_ 0.468015 0.331957 0.0617533 0.0
C_ C_ 0.483327 0.372709 0.105822 0.0
C_ C_ 0.410045 0.399658 0.10278 0.0
C_ C_ 0.500595 0.479865 0.155882 0.0
C_ C_ 0.479459 0.454736 0.135003 0.0
C_ C_ 0.470209 0.419119 0.14233 0.0
C_ C_ 0.48703 0.408298 0.1722 0.0
C_ C_ 0.515687 0.432354 0.19052 0.0
C_ C_ 0.632998 0.284333 0.0824782 0.0
C_ C_ 0.666894 0.295005 0.109106 0.0
C_ C_ 0.381769 0.287414 0.115662 0.0
C_ C_ 0.40695 0.294909 0.142748 0.0
C_ C_ 0.378642 0.310587 0.166274 0.0
C_ C_ 0.669055 0.316636 0.160832 0.0
C_ C_ 0.645069 0.313858 0.13286 0.0
C_ C_ 0.40247 0.332488 0.188237 0.0
C_ C_ 0.666064 0.344912 0.179221 0.0
C_ C_ 0.425044 0.409063 0.261369 0.0
C_ C_ 0.406819 0.38023 0.244233 0.0
C_ C_ 0.380337 0.385246 0.21742 0.0
C_ C_ 0.367461 0.419498 0.209526 0.0
C_ C_ 0.388794 0.448401 0.226444 0.0
N_ N_ 0.518656 0.222709 0.0689675 0.0
N_ N_ 0.449178 0.151341 0.1337 0.0
N_ N_ 0.373572 0.099017 0.0550168 0.0
N_ N_ 0.417883 0.187563 0.998633 0.0
N_ N_ 0.481937 0.0288824 0.317192 0.0
N_ N_ 0.551796 0.108042 0.373125 0.0
N_ N_ 0.625614 0.152619 0.301108 0.0
N_ N_ 0.577225 0.0609716 0.249758 0.0
N_ N_ 0.479329 0.281223 0.428247 0.0
N_ N_ 0.551667 0.353369 0.368439 0.0
N_ N_ 0.622796 0.398752 0.446178 0.0
N_ N_ 0.584125 0.310198 0.502092 0.0
N_ N_ 0.522368 0.467746 0.18196 0.0
N_ N_ 0.451555 0.394288 0.120811 0.0
N_ N_ 0.367298 0.355638 0.19867 0.0
N_ N_ 0.417218 0.443561 0.252078 0.0
O_ O_ 0.468271 0.0161737 0.219718 0.0
O_ O_ 0.416219 0.0355772 0.253957 0.0
O_ O_ 0.364987 0.174893 0.143315 0.0
O_ O_ 0.517901 0.112606 0.135941 0.0
O_ O_ 0.5918 0.0513297 0.172142 0.0
O_ O_ 0.649675 0.0170383 0.186914 0.0
O_ O_ 0.623621 0.114478 0.0686033 0.0
O_ O_ 0.45483 0.0727288 0.0584435 0.0
O_ O_ 0.532591 0.236734 0.466205 0.0
O_ O_ 0.58762 0.214314 -0.000418896 0.0
O_ O_ 0.641664 0.102766 0.379064 0.0
O_ O_ 0.470623 0.134916 0.382149 0.0
O_ O_ 0.40639 0.197085 0.421243 0.0
O_ O_ 0.359807 0.243736 0.424843 0.0
O_ O_ 0.384863 0.135441 0.312204 0.0
O_ O_ 0.55504 0.188904 0.294691 0.0
O_ O_ 0.536941 0.483116 0.283266 0.0
O_ O_ 0.590028 0.465534 0.248097 0.0
O_ O_ 0.636239 0.334936 0.358478 0.0
O_ O_ 0.488965 0.39744 0.369414 0.0
O_ O_ 0.408583 0.444888 0.323946 0.0
O_ O_ 0.363422 0.490751 0.320118 0.0
O_ O_ 0.383612 0.37814 0.433682 0.0
O_ O_ 0.544149 0.427361 0.448241 0.0
O_ O_ 0.463189 0.263914 0.0294011 0.0
O_ O_ 0.413149 0.28845 0.489142 0.0
O_ O_ 0.365388 0.41316 0.113197 0.0
O_ O_ 0.516544 0.352703 0.118874 0.0
O_ O_ 0.594653 0.301779 0.0746537 0.0
O_ O_ 0.64309 0.259036 0.0653712 0.0
O_ O_ 0.634391 0.371154 0.173823 0.0
O_ O_ 0.443718 0.323455 0.205002 0.0
Cd Cd 0.563218 0.0143981 0.715183 0.0
Cd Cd 0.429381 0.236592 0.96287 0.0
Cd Cd 0.438626 0.487813 0.785758 0.0
Cd Cd 0.561952 0.264327 0.534891 0.0
H_ H_ 0.381797 0.0994195 0.746624 0.0
H_ H_ 0.667357 0.128862 0.689881 0.0
H_ H_ 0.483745 0.0619996 0.678358 0.0
H_ H_ 0.451484 0.243777 0.575787 0.0
H_ H_ 0.421313 0.199862 0.612724 0.0
H_ H_ 0.570137 0.154882 0.610786 0.0
H_ H_ 0.586461 0.188388 0.562764 0.0
H_ H_ 0.403037 0.016318 0.654358 0.0
H_ H_ 0.462741 0.0467198 0.616282 0.0
H_ H_ 0.607405 0.0808892 0.618566 0.0
H_ H_ 0.435384 0.149713 0.966402 0.0
H_ H_ 0.44798 0.116637 0.517459 0.0
H_ H_ 0.354841 0.192002 0.567636 0.0
H_ H_ 0.360253 0.230848 0.521079 0.0
H_ H_ 0.644287 0.168884 0.977663 0.0
H_ H_ 0.315011 0.10803 0.948823 0.0
H_ H_ 0.493527 0.177449 0.936923 0.0
H_ H_ 0.505989 0.491563 0.84485 0.0
H_ H_ 0.5379 0.0356005 0.885864 0.0
H_ H_ 0.49427 0.118838 0.825191 0.0
H_ H_ 0.458626 0.072157 0.790057 0.0
H_ H_ 0.593766 0.224804 0.906244 0.0
H_ H_ 0.545998 0.213164 0.859908 0.0
H_ H_ 0.393005 0.162678 0.868153 0.0
H_ H_ 0.552636 0.0970793 0.716899 0.0
H_ H_ 0.574479 0.148759 0.751708 0.0
H_ H_ 0.631102 0.0769347 0.816512 0.0
H_ H_ 0.616595 0.0282287 0.780302 0.0
H_ H_ 0.652977 0.422692 0.778759 0.0
H_ H_ 0.223015 0.334062 0.766997 0.0
H_ H_ 0.490118 0.427817 0.810356 0.0
H_ H_ 0.497659 0.235208 0.902791 0.0
H_ H_ 0.5418 0.278033 0.865104 0.0
H_ H_ 0.470332 0.362738 0.909738 0.0
H_ H_ 0.433878 0.320176 0.947113 0.0
H_ H_ 0.59381 0.471637 0.840749 0.0
H_ H_ 0.540365 0.453394 0.887017 0.0
H_ H_ 0.392953 0.419503 0.878558 0.0
H_ H_ 0.547826 0.345398 0.530021 0.0
H_ H_ 0.600536 0.400302 1.00369619 0.0
H_ H_ 0.614725 0.329293 0.928338 0.0
H_ H_ 0.596681 0.27648 0.963609 0.0
H_ H_ 0.417556 0.356987 0.491152 0.0
H_ H_ 0.664948 0.372131 0.565559 0.0
H_ H_ 0.467975 0.306936 0.571205 0.0
H_ H_ 0.507021 0.00667352 0.649374 0.0
H_ H_ 0.457603 0.46505 0.617804 0.0
H_ H_ 0.567705 0.39107 0.645287 0.0
H_ H_ 0.586738 0.427456 0.69032 0.0
H_ H_ 0.37374 0.252485 0.609006 0.0
H_ H_ 0.4259 0.267101 0.651435 0.0
H_ H_ 0.605223 0.322107 0.631915 0.0
H_ H_ 0.347851 0.421086 0.776976 0.0
H_ H_ 0.314174 0.381963 0.73373 0.0
H_ H_ 0.461828 0.406364 0.687152 0.0
H_ H_ 0.484506 0.450026 0.726843 0.0
C_ C_ 0.438478 0.0427994 0.730152 0.0
C_ C_ 0.429193 0.0748809 0.71261 0.0
C_ C_ 0.40105 0.102466 0.724973 0.0
C_ C_ 0.396123 0.132638 0.70846 0.0
C_ C_ 0.417116 0.135441 0.679244 0.0
C_ C_ 0.444953 0.108342 0.666766 0.0
C_ C_ 0.453246 0.0783338 0.683777 0.0
C_ C_ 0.480407 0.120939 0.645199 0.0
C_ C_ 0.44182 0.166112 0.665479 0.0
C_ C_ 0.480621 0.227735 0.584947 0.0
C_ C_ 0.462927 0.204589 0.608797 0.0
C_ C_ 0.495622 0.178503 0.618306 0.0
C_ C_ 0.542229 0.173455 0.602793 0.0
C_ C_ 0.555084 0.194881 0.576804 0.0
C_ C_ 0.636072 0.0398333 0.669115 0.0
C_ C_ 0.666419 0.046559 0.640458 0.0
C_ C_ 0.38599 0.0360516 0.639051 0.0
C_ C_ 0.419621 0.0512692 0.615299 0.0
C_ C_ 0.399463 0.0735228 0.594421 0.0
C_ C_ 0.669039 0.0672134 0.588826 0.0
C_ C_ 0.642384 0.0648368 0.616433 0.0
C_ C_ 0.426328 0.0994097 0.579013 0.0
C_ C_ 0.665167 0.0964987 0.569924 0.0
C_ C_ 0.422457 0.15364 0.988247 0.0
C_ C_ 0.43303 0.142312 0.522075 0.0
C_ C_ 0.4034 0.150705 0.547491 0.0
C_ C_ 0.378636 0.183736 0.548312 0.0
C_ C_ 0.382493 0.205942 0.522792 0.0
C_ C_ 0.55696 0.208229 0.977946 0.0
C_ C_ 0.564065 0.175167 0.961688 0.0
C_ C_ 0.615213 0.159223 0.961886 0.0
C_ C_ 0.624034 0.130736 0.942234 0.0
C_ C_ 0.582008 0.118418 0.923118 0.0
C_ C_ 0.533244 0.131511 0.92455 0.0
C_ C_ 0.524096 0.161294 0.943017 0.0
C_ C_ 0.511607 0.124019 0.89588 0.0
C_ C_ 0.589415 0.104359 0.895325 0.0
C_ C_ 0.505719 0.0195577 0.841194 0.0
C_ C_ 0.525181 0.0448857 0.862891 0.0
C_ C_ 0.528273 0.0807792 0.855954 0.0
C_ C_ 0.506942 0.0915508 0.828386 0.0
C_ C_ 0.480398 0.0645406 0.810073 0.0
C_ C_ 0.362508 0.207072 0.916214 0.0
C_ C_ 0.339574 0.204107 0.885182 0.0
C_ C_ 0.614313 0.214576 0.887314 0.0
C_ C_ 0.587568 0.211648 0.85947 0.0
C_ C_ 0.613255 0.194979 0.835534 0.0
C_ C_ 0.346166 0.184941 0.832863 0.0
C_ C_ 0.364828 0.184362 0.863079 0.0
C_ C_ 0.588679 0.172673 0.813104 0.0
C_ C_ 0.34914 0.156637 0.81337 0.0
C_ C_ 0.572638 0.0946025 0.738503 0.0
C_ C_ 0.585514 0.122385 0.757937 0.0
C_ C_ 0.607881 0.117127 0.785563 0.0
C_ C_ 0.616025 0.0822697 0.794499 0.0
C_ C_ 0.60934 0.0550012 0.773743 0.0
C_ C_ 0.563258 0.459595 0.771327 0.0
C_ C_ 0.569524 0.427768 0.789008 0.0
C_ C_ 0.617311 0.41016 0.789026 0.0
C_ C_ 0.625346 0.382284 0.808796 0.0
C_ C_ 0.580805 0.364922 0.822476 0.0
C_ C_ 0.530805 0.378781 0.820639 0.0
C_ C_ 0.524552 0.411639 0.804444 0.0
C_ C_ 0.501953 0.366807 0.845048 0.0
C_ C_ 0.579926 0.347053 0.849713 0.0
C_ C_ 0.493391 0.263868 0.903991 0.0
C_ C_ 0.519494 0.287599 0.883827 0.0
C_ C_ 0.510029 0.325107 0.884859 0.0
C_ C_ 0.481395 0.336945 0.910065 0.0
C_ C_ 0.457432 0.31188 0.929136 0.0
C_ C_ 0.370117 0.466188 0.835576 0.0
C_ C_ 0.338147 0.455711 0.861832 0.0
C_ C_ 0.613239 0.461583 0.861042 0.0
C_ C_ 0.58355 0.452691 0.887371 0.0
C_ C_ 0.611168 0.441582 0.913301 0.0
C_ C_ 0.327035 0.425817 0.908817 0.0
C_ C_ 0.357241 0.433773 0.883484 0.0
C_ C_ 0.587646 0.421406 0.935837 0.0
C_ C_ 0.323804 0.391765 0.921201 0.0
C_ C_ 0.569997 0.342274 0.51028 0.0
C_ C_ 0.594466 0.37301 0.993976 0.0
C_ C_ 0.608163 0.369226 0.964455 0.0
C_ C_ 0.60618 0.332785 0.952195 0.0
C_ C_ 0.598397 0.303432 0.971809 0.0
C_ C_ 0.440716 0.293836 0.513018 0.0
C_ C_ 0.437421 0.328497 0.530143 0.0
C_ C_ 0.432996 0.359633 0.513843 0.0
C_ C_ 0.444497 0.393101 0.527834 0.0
C_ C_ 0.452789 0.393834 0.559078 0.0
C_ C_ 0.454733 0.362801 0.576011 0.0
C_ C_ 0.450782 0.329951 0.56082 0.0
C_ C_ 0.483639 0.370631 0.600941 0.0
C_ C_ 0.482881 0.419211 0.574194 0.0
C_ C_ 0.508104 0.480985 0.654123 0.0
C_ C_ 0.487489 0.456767 0.632683 0.0
C_ C_ 0.512117 0.425443 0.62767 0.0
C_ C_ 0.547889 0.414683 0.649533 0.0
C_ C_ 0.561378 0.436715 0.673679 0.0
C_ C_ 0.633184 0.286681 0.582029 0.0
C_ C_ 0.66495 0.295182 0.610376 0.0
C_ C_ 0.373578 0.278456 0.615149 0.0
C_ C_ 0.402287 0.287865 0.641485 0.0
C_ C_ 0.396696 0.321703 0.653561 0.0
C_ C_ 0.669735 0.317269 0.660767 0.0
C_ C_ 0.64111 0.310847 0.635215 0.0
C_ C_ 0.402096 0.332196 0.683389 0.0
C_ C_ 0.664503 0.344354 0.681581 0.0
C_ C_ 0.370163 0.420122 0.755955 0.0
C_ C_ 0.354374 0.394099 0.734228 0.0
C_ C_ 0.388503 0.38815 0.710333 0.0
C_ C_ 0.437058 0.407656 0.707639 0.0
C_ C_ 0.451415 0.431556 0.730061 0.0
N_ N_ 0.527681 0.223838 0.570445 0.0
N_ N_ 0.479674 0.156565 0.644891 0.0
N_ N_ 0.394181 0.123969 0.569642 0.0
N_ N_ 0.417323 0.199278 0.500161 0.0
N_ N_ 0.480512 0.0303683 0.816733 0.0
N_ N_ 0.545548 0.107361 0.878002 0.0
N_ N_ 0.621546 0.14716 0.804286 0.0
N_ N_ 0.581842 0.0600583 0.747627 0.0
N_ N_ 0.468871 0.277388 0.928151 0.0
N_ N_ 0.530872 0.348474 0.862552 0.0
N_ N_ 0.622031 0.397973 0.945468 0.0
N_ N_ 0.581491 0.310174 -9.04327e-05 0.0
N_ N_ 0.538102 0.46888 0.677792 0.0
N_ N_ 0.501394 0.40446 0.600596 0.0
N_ N_ 0.37278 0.361392 0.68844 0.0
N_ N_ 0.418264 0.437174 0.75376 0.0
O_ O_ 0.463961 0.0193765 0.717803 0.0
O_ O_ 0.409021 0.033189 0.751195 0.0
O_ O_ 0.441272 0.197756 0.676886 0.0
O_ O_ 0.5242 0.10416 0.63972 0.0
O_ O_ 0.591816 0.0527148 0.673481 0.0
O_ O_ 0.648895 0.0151827 0.686561 0.0
O_ O_ 0.619395 0.104977 0.559363 0.0
O_ O_ 0.478258 0.104959 0.580321 0.0
O_ O_ 0.527176 0.233213 0.967482 0.0
O_ O_ 0.587116 0.216388 0.500186 0.0
O_ O_ 0.620442 0.0780562 0.892138 0.0
O_ O_ 0.460975 0.122839 0.89139 0.0
O_ O_ 0.406645 0.194072 0.921574 0.0
O_ O_ 0.344875 0.229252 0.934851 0.0
O_ O_ 0.384293 0.132678 0.813519 0.0
O_ O_ 0.544308 0.179288 0.799028 0.0
O_ O_ 0.538903 0.484524 0.782726 0.0
O_ O_ 0.592136 0.466241 0.748413 0.0
O_ O_ 0.623516 0.341383 0.863992 0.0
O_ O_ 0.463814 0.384787 0.857293 0.0
O_ O_ 0.417072 0.457361 0.832109 0.0
O_ O_ 0.352635 0.486941 0.816369 0.0
O_ O_ 0.366018 0.37892 0.933774 0.0
O_ O_ 0.535719 0.413006 0.938287 0.0
O_ O_ 0.465561 0.269313 0.52412 0.0
O_ O_ 0.405351 0.282981 0.998472 0.0
O_ O_ 0.507644 0.447517 0.560387 0.0
O_ O_ 0.500594 0.347183 0.618588 0.0
O_ O_ 0.59183 0.302428 0.578081 0.0
O_ O_ 0.640746 0.260226 0.56616 0.0
O_ O_ 0.618342 0.350116 0.693587 0.0
O_ O_ 0.414628 0.310573 0.705877 0.0
Cd Cd 0.563152 0.509972 0.213511 0.0
Cd Cd 0.436216 0.737844 0.464944 0.0
Cd Cd 0.439299 0.987831 0.287588 0.0
Cd Cd 0.563835 0.762137 0.0350453 0.0
H_ H_ 0.349163 0.574645 0.221339 0.0
H_ H_ 0.666002 0.623629 0.185993 0.0
H_ H_ 0.496636 0.563274 0.177756 0.0
H_ H_ 0.496158 0.758416 0.0964432 0.0
H_ H_ 0.453349 0.715024 0.13202 0.0
H_ H_ 0.49985 0.629294 0.0750575 0.0
H_ H_ 0.536022 0.6752 0.0377112 0.0
H_ H_ 0.399609 0.516517 0.152385 0.0
H_ H_ 0.455414 0.534941 0.108906 0.0
H_ H_ 0.603755 0.574027 0.118642 0.0
H_ H_ 0.439865 0.653176 0.46536 0.0
H_ H_ 0.423085 0.601153 0.998933 0.0
H_ H_ 0.364427 0.671641 0.0650345 0.0
H_ H_ 0.380367 0.721003 0.0306127 0.0
H_ H_ 0.642577 0.664586 0.480029 0.0
H_ H_ 0.309606 0.605397 0.458585 0.0
H_ H_ 0.501188 0.684912 0.42971 0.0
H_ H_ 0.505584 0.989868 0.348769 0.0
H_ H_ 0.545528 0.535311 0.382695 0.0
H_ H_ 0.505018 0.619419 0.323413 0.0
H_ H_ 0.460494 0.574761 0.289714 0.0
H_ H_ 0.599604 0.733852 0.402651 0.0
H_ H_ 0.548379 0.718305 0.357189 0.0
H_ H_ 0.396021 0.675812 0.368729 0.0
H_ H_ 0.557729 0.596931 0.21593 0.0
H_ H_ 0.5753 0.649031 0.249234 0.0
H_ H_ 0.642336 0.5792 0.314124 0.0
H_ H_ 0.615988 0.527971 0.2808 0.0
H_ H_ 0.650879 0.922804 0.276433 0.0
H_ H_ 0.329794 0.865238 0.302264 0.0
H_ H_ 0.500513 0.93478 0.320001 0.0
H_ H_ 0.496289 0.741529 0.401191 0.0
H_ H_ 0.546954 0.785213 0.368277 0.0
H_ H_ 0.497424 0.869307 0.424044 0.0
H_ H_ 0.463307 0.824736 0.461698 0.0
H_ H_ 0.595774 0.975287 0.344493 0.0
H_ H_ 0.542405 0.954233 0.388049 0.0
H_ H_ 0.399095 0.931005 0.382928 0.0
H_ H_ 0.559002 0.847139 0.0339929 0.0
H_ H_ 0.576602 0.89894 0.501018 0.0
H_ H_ 0.639598 0.829013 0.435362 0.0
H_ H_ 0.612759 0.778033 0.467467 0.0
H_ H_ 0.350717 0.828234 0.0255136 0.0
H_ H_ 0.675122 0.884466 0.054107 0.0
H_ H_ 0.498892 0.815178 0.0702528 0.0
H_ H_ 0.500395 0.508413 0.152338 0.0
H_ H_ 0.455477 0.964791 0.117439 0.0
H_ H_ 0.499181 0.879969 0.175644 0.0
H_ H_ 0.53885 0.925225 0.2109 0.0
H_ H_ 0.402979 0.77026 0.0952161 0.0
H_ H_ 0.455113 0.786785 0.141306 0.0
H_ H_ 0.604364 0.824876 0.131063 0.0
H_ H_ 0.445366 0.903364 0.28328 0.0
H_ H_ 0.423131 0.850974 0.251095 0.0
H_ H_ 0.360554 0.920902 0.185192 0.0
H_ H_ 0.381605 0.971767 0.219611 0.0
C_ C_ 0.43868 0.539998 0.227052 0.0
C_ C_ 0.42932 0.570771 0.207483 0.0
C_ C_ 0.381853 0.588822 0.210019 0.0
C_ C_ 0.372918 0.617352 0.190542 0.0
C_ C_ 0.414437 0.63051 0.171853 0.0
C_ C_ 0.4608 0.613273 0.169669 0.0
C_ C_ 0.466734 0.581574 0.185219 0.0
C_ C_ 0.481436 0.620719 0.141473 0.0
C_ C_ 0.408884 0.648598 0.145016 0.0
C_ C_ 0.497609 0.730298 0.0920919 0.0
C_ C_ 0.472407 0.705623 0.111814 0.0
C_ C_ 0.471479 0.669032 0.105206 0.0
C_ C_ 0.49651 0.658066 0.0790275 0.0
C_ C_ 0.51981 0.683656 0.0593936 0.0
C_ C_ 0.634705 0.53623 0.167278 0.0
C_ C_ 0.665401 0.544726 0.139664 0.0
C_ C_ 0.384406 0.533773 0.136493 0.0
C_ C_ 0.413353 0.541779 0.110068 0.0
C_ C_ 0.387771 0.557109 0.0859562 0.0
C_ C_ 0.669945 0.568029 0.0889766 0.0
C_ C_ 0.642605 0.56379 0.116129 0.0
C_ C_ 0.413024 0.579403 0.0648629 0.0
C_ C_ 0.666112 0.596676 0.0696897 0.0
C_ C_ 0.430381 0.657225 0.489051 0.0
C_ C_ 0.416542 0.62753 0.00700845 0.0
C_ C_ 0.392127 0.632198 0.0347975 0.0
C_ C_ 0.380366 0.666644 0.0436273 0.0
C_ C_ 0.394123 0.695648 0.0247575 0.0
C_ C_ 0.56132 0.710002 0.477052 0.0
C_ C_ 0.57068 0.679229 0.457483 0.0
C_ C_ 0.618147 0.661178 0.460019 0.0
C_ C_ 0.627082 0.632648 0.440542 0.0
C_ C_ 0.585563 0.61949 0.421853 0.0
C_ C_ 0.5392 0.636727 0.419669 0.0
C_ C_ 0.533266 0.668426 0.435219 0.0
C_ C_ 0.518564 0.629281 0.391473 0.0
C_ C_ 0.591116 0.601402 0.395016 0.0
C_ C_ 0.502391 0.519702 0.342092 0.0
C_ C_ 0.527593 0.544377 0.361814 0.0
C_ C_ 0.528521 0.580968 0.355206 0.0
C_ C_ 0.50349 0.591934 0.329027 0.0
C_ C_ 0.48019 0.566344 0.309394 0.0
C_ C_ 0.365295 0.71377 0.417278 0.0
C_ C_ 0.334599 0.705274 0.389664 0.0
C_ C_ 0.615594 0.716227 0.386493 0.0
C_ C_ 0.586647 0.708221 0.360068 0.0
C_ C_ 0.612229 0.692891 0.335956 0.0
C_ C_ 0.330055 0.681971 0.338977 0.0
C_ C_ 0.357395 0.68621 0.366129 0.0
C_ C_ 0.586976 0.670597 0.314863 0.0
C_ C_ 0.333888 0.653324 0.31969 0.0
C_ C_ 0.569619 0.592775 0.239051 0.0
C_ C_ 0.583458 0.62247 0.257008 0.0
C_ C_ 0.607873 0.617802 0.284798 0.0
C_ C_ 0.619634 0.583356 0.293627 0.0
C_ C_ 0.605877 0.554352 0.274758 0.0
C_ C_ 0.56132 0.960002 0.272948 0.0
C_ C_ 0.57068 0.929229 0.292517 0.0
C_ C_ 0.618147 0.911178 0.289981 0.0
C_ C_ 0.627082 0.882648 0.309458 0.0
C_ C_ 0.585563 0.86949 0.328147 0.0
C_ C_ 0.5392 0.886727 0.330331 0.0
C_ C_ 0.533266 0.918426 0.314781 0.0
C_ C_ 0.518564 0.879281 0.358527 0.0
C_ C_ 0.591116 0.851402 0.354984 0.0
C_ C_ 0.502391 0.769702 0.407908 0.0
C_ C_ 0.527593 0.794377 0.388186 0.0
C_ C_ 0.528521 0.830968 0.394794 0.0
C_ C_ 0.50349 0.841934 0.420973 0.0
C_ C_ 0.48019 0.816344 0.440606 0.0
C_ C_ 0.365295 0.96377 0.332722 0.0
C_ C_ 0.334599 0.955274 0.360336 0.0
C_ C_ 0.615594 0.966227 0.363507 0.0
C_ C_ 0.586647 0.958221 0.389932 0.0
C_ C_ 0.612229 0.942891 0.414044 0.0
C_ C_ 0.330055 0.931971 0.411023 0.0
C_ C_ 0.357395 0.93621 0.383871 0.0
C_ C_ 0.586976 0.920597 0.435137 0.0
C_ C_ 0.333888 0.903324 0.43031 0.0
C_ C_ 0.569619 0.842775 0.010949 0.0
C_ C_ 0.583458 0.87247 0.492992 0.0
C_ C_ 0.607873 0.867802 0.465202 0.0
C_ C_ 0.619634 0.833356 0.456373 0.0
C_ C_ 0.605877 0.804352 0.475242 0.0
C_ C_ 0.43868 0.789998 0.0229477 0.0
C_ C_ 0.42932 0.820771 0.0425173 0.0
C_ C_ 0.381853 0.838822 0.0399812 0.0
C_ C_ 0.372918 0.867352 0.0594584 0.0
C_ C_ 0.414437 0.88051 0.0781469 0.0
C_ C_ 0.4608 0.863273 0.0803307 0.0
C_ C_ 0.466734 0.831574 0.0647812 0.0
C_ C_ 0.481436 0.870719 0.108527 0.0
C_ C_ 0.408884 0.898598 0.104984 0.0
C_ C_ 0.497609 0.980298 0.157908 0.0
C_ C_ 0.472407 0.955623 0.138186 0.0
C_ C_ 0.471479 0.919032 0.144794 0.0
C_ C_ 0.49651 0.908066 0.170973 0.0
C_ C_ 0.51981 0.933656 0.190606 0.0
C_ C_ 0.634705 0.78623 0.0827219 0.0
C_ C_ 0.665401 0.794726 0.110336 0.0
C_ C_ 0.384406 0.783773 0.113507 0.0
C_ C_ 0.413353 0.791779 0.139932 0.0
C_ C_ 0.387771 0.807109 0.164044 0.0
C_ C_ 0.669945 0.818029 0.161023 0.0
C_ C_ 0.642605 0.81379 0.133871 0.0
C_ C_ 0.413024 0.829403 0.185137 0.0
C_ C_ 0.666112 0.846676 0.18031 0.0
C_ C_ 0.430381 0.907225 0.260949 0.0
C_ C_ 0.416542 0.87753 0.242992 0.0
C_ C_ 0.392127 0.882198 0.215202 0.0
C_ C_ 0.380366 0.916644 0.206373 0.0
C_ C_ 0.394123 0.945648 0.225242 0.0
N_ N_ 0.519601 0.719087 0.066102 0.0
N_ N_ 0.450277 0.642872 0.126543 0.0
N_ N_ 0.378193 0.601806 0.0536496 0.0
N_ N_ 0.420902 0.690701 0.9986 0.0
N_ N_ 0.480399 0.530913 0.316102 0.0
N_ N_ 0.549723 0.607128 0.376543 0.0
N_ N_ 0.621807 0.648194 0.30365 0.0
N_ N_ 0.579098 0.559299 0.2486 0.0
N_ N_ 0.480399 0.780913 0.433898 0.0
N_ N_ 0.549723 0.857128 0.373457 0.0
N_ N_ 0.621807 0.898194 0.44635 0.0
N_ N_ 0.579098 0.809299 0.5014 0.0
N_ N_ 0.519601 0.969087 0.183898 0.0
N_ N_ 0.450277 0.892872 0.123457 0.0
N_ N_ 0.378193 0.851806 0.19635 0.0
N_ N_ 0.420902 0.940701 0.2514 0.0
O_ O_ 0.465517 0.514997 0.217173 0.0
O_ O_ 0.410651 0.534476 0.250578 0.0
O_ O_ 0.362123 0.655721 0.134274 0.0
O_ O_ 0.532653 0.620132 0.13586 0.0
O_ O_ 0.59232 0.551058 0.172831 0.0
O_ O_ 0.645557 0.510599 0.184197 0.0
O_ O_ 0.620206 0.605994 0.059287 0.0
O_ O_ 0.454156 0.569983 0.0492879 0.0
O_ O_ 0.534483 0.735003 0.467173 0.0
O_ O_ 0.589349 0.715524 0.000578323 0.0
O_ O_ 0.637877 0.594279 0.384274 0.0
O_ O_ 0.467347 0.629868 0.38586 0.0
O_ O_ 0.40768 0.698942 0.422831 0.0
O_ O_ 0.354443 0.739401 0.434197 0.0
O_ O_ 0.379794 0.644007 0.309287 0.0
O_ O_ 0.545844 0.680017 0.299288 0.0
O_ O_ 0.534483 0.985003 0.282827 0.0
O_ O_ 0.589349 0.965524 0.249422 0.0
O_ O_ 0.637877 0.844279 0.365726 0.0
O_ O_ 0.467347 0.879868 0.36414 0.0
O_ O_ 0.40768 0.948942 0.327169 0.0
O_ O_ 0.354443 0.989401 0.315803 0.0
O_ O_ 0.379794 0.894007 0.440713 0.0
O_ O_ 0.545844 0.930017 0.450712 0.0
O_ O_ 0.465517 0.764997 0.032827 0.0
O_ O_ 0.410651 0.784476 0.499422 0.0
O_ O_ 0.362123 0.905721 0.115726 0.0
O_ O_ 0.532653 0.870132 0.11414 0.0
O_ O_ 0.59232 0.801058 0.0771694 0.0
O_ O_ 0.645557 0.760599 0.0658027 0.0
O_ O_ 0.620206 0.855994 0.190713 0.0
O_ O_ 0.454156 0.819983 0.200712 0.0
Cd Cd 0.563502 0.511719 0.71467 0.0
Cd Cd 0.436498 0.738281 0.96467 0.0
Cd Cd 0.436498 0.988281 0.78533 0.0
Cd Cd 0.563502 0.761719 0.53533 0.0
H_ H_ 0.351294 0.579745 0.725897 0.0
H_ H_ 0.668104 0.629013 0.690298 0.0
H_ H_ 0.498892 0.565178 0.679747 0.0
H_ H_ 0.500395 0.758413 0.597662 0.0
H_ H_ 0.455477 0.714791 0.632561 0.0
H_ H_ 0.499181 0.629969 0.574356 0.0
H_ H_ 0.53885 0.675225 0.5391 0.0
H_ H_ 0.402979 0.52026 0.654784 0.0
H_ H_ 0.455113 0.536785 0.608694 0.0
H_ H_ 0.604364 0.574876 0.618937 0.0
H_ H_ 0.445366 0.653364 0.96672 0.0
H_ H_ 0.423131 0.600974 0.498905 0.0
H_ H_ 0.360554 0.670902 0.564808 0.0
H_ H_ 0.381605 0.721767 0.530389 0.0
H_ H_ 0.648706 0.670255 0.975897 0.0
H_ H_ 0.331896 0.620987 0.940298 0.0
H_ H_ 0.501108 0.684822 0.929747 0.0
H_ H_ 0.499605 0.991587 0.847662 0.0
H_ H_ 0.544523 0.535209 0.882561 0.0
H_ H_ 0.500819 0.620031 0.824356 0.0
H_ H_ 0.46115 0.574775 0.7891 0.0
H_ H_ 0.597021 0.72974 0.904784 0.0
H_ H_ 0.544887 0.713215 0.858694 0.0
H_ H_ 0.395636 0.675124 0.868937 0.0
H_ H_ 0.554634 0.596636 0.71672 0.0
H_ H_ 0.576869 0.649026 0.748905 0.0
H_ H_ 0.639446 0.579098 0.814808 0.0
H_ H_ 0.618395 0.528233 0.780389 0.0
H_ H_ 0.648706 0.920255 0.774103 0.0
H_ H_ 0.331896 0.870987 0.809702 0.0
H_ H_ 0.501108 0.934822 0.820253 0.0
H_ H_ 0.499605 0.741587 0.902338 0.0
H_ H_ 0.544523 0.785209 0.867439 0.0
H_ H_ 0.500819 0.870031 0.925644 0.0
H_ H_ 0.46115 0.824775 0.9609 0.0
H_ H_ 0.597021 0.97974 0.845216 0.0
H_ H_ 0.544887 0.963215 0.891306 0.0
H_ H_ 0.395636 0.925124 0.881063 0.0
H_ H_ 0.554634 0.846636 0.53328 0.0
H_ H_ 0.576869 0.899026 0.00109454 0.0
H_ H_ 0.639446 0.829098 0.935192 0.0
H_ H_ 0.618395 0.778233 0.969611 0.0
H_ H_ 0.351294 0.829745 0.524103 0.0
H_ H_ 0.668104 0.879013 0.559702 0.0
H_ H_ 0.498892 0.815178 0.570253 0.0
H_ H_ 0.500395 0.508413 0.652338 0.0
H_ H_ 0.455477 0.964791 0.617439 0.0
H_ H_ 0.499181 0.879969 0.675644 0.0
H_ H_ 0.53885 0.925225 0.7109 0.0
H_ H_ 0.402979 0.77026 0.595216 0.0
H_ H_ 0.455113 0.786785 0.641306 0.0
H_ H_ 0.604364 0.824876 0.631063 0.0
H_ H_ 0.445366 0.903364 0.78328 0.0
H_ H_ 0.423131 0.850974 0.751095 0.0
H_ H_ 0.360554 0.920902 0.685192 0.0
H_ H_ 0.381605 0.971767 0.719611 0.0
C_ C_ 0.43868 0.539998 0.727052 0.0
C_ C_ 0.42932 0.570771 0.707483 0.0
C_ C_ 0.381853 0.588822 0.710019 0.0
C_ C_ 0.372918 0.617352 0.690542 0.0
C_ C_ 0.414437 0.63051 0.671853 0.0
C_ C_ 0.4608 0.613273 0.669669 0.0
C_ C_ 0.466734 0.581574 0.685219 0.0
C_ C_ 0.481436 0.620719 0.641473 0.0
C_ C_ 0.408884 0.648598 0.645016 0.0
C_ C_ 0.497609 0.730298 0.592092 0.0
C_ C_ 0.472407 0.705623 0.611814 0.0
C_ C_ 0.471479 0.669032 0.605206 0.0
C_ C_ 0.49651 0.658066 0.579027 0.0
C_ C_ 0.51981 0.683656 0.559394 0.0
C_ C_ 0.634705 0.53623 0.667278 0.0
C_ C_ 0.665401 0.544726 0.639664 0.0
C_ C_ 0.384406 0.533773 0.636493 0.0
C_ C_ 0.413353 0.541779 0.610068 0.0
C_ C_ 0.387771 0.557109 0.585956 0.0
C_ C_ 0.669945 0.568029 0.588977 0.0
C_ C_ 0.642605 0.56379 0.616129 0.0
C_ C_ 0.413024 0.579403 0.564863 0.0
C_ C_ 0.666112 0.596676 0.56969 0.0
C_ C_ 0.430381 0.657225 0.989051 0.0
C_ C_ 0.416542 0.62753 0.507008 0.0
C_ C_ 0.392127 0.632198 0.534798 0.0
C_ C_ 0.380366 0.666644 0.543627 0.0
C_ C_ 0.394123 0.695648 0.524758 0.0
C_ C_ 0.56132 0.710002 0.977052 0.0
C_ C_ 0.57068 0.679229 0.957483 0.0
C_ C_ 0.618147 0.661178 0.960019 0.0
C_ C_ 0.627082 0.632648 0.940542 0.0
C_ C_ 0.585563 0.61949 0.921853 0.0
C_ C_ 0.5392 0.636727 0.919669 0.0
C_ C_ 0.533266 0.668426 0.935219 0.0
C_ C_ 0.518564 0.629281 0.891473 0.0
C_ C_ 0.591116 0.601402 0.895016 0.0
C_ C_ 0.502391 0.519702 0.842092 0.0
C_ C_ 0.527593 0.544377 0.861814 0.0
C_ C_ 0.528521 0.580968 0.855206 0.0
C_ C_ 0.50349 0.591934 0.829027 0.0
C_ C_ 0.48019 0.566344 0.809394 0.0
C_ C_ 0.365295 0.71377 0.917278 0.0
C_ C_ 0.334599 0.705274 0.889664 0.0
C_ C_ 0.615594 0.716227 0.886493 0.0
C_ C_ 0.586647 0.708221 0.860068 0.0
C_ C_ 0.612229 0.692891 0.835956 0.0
C_ C_ 0.330055 0.681971 0.838977 0.0
C_ C_ 0.357395 0.68621 0.866129 0.0
C_ C_ 0.586976 0.670597 0.814863 0.0
C_ C_ 0.333888 0.653324 0.81969 0.0
C_ C_ 0.569619 0.592775 0.739051 0.0
C_ C_ 0.583458 0.62247 0.757008 0.0
C_ C_ 0.607873 0.617802 0.784798 0.0
C_ C_ 0.619634 0.583356 0.793627 0.0
C_ C_ 0.605877 0.554352 0.774758 0.0
C_ C_ 0.56132 0.960002 0.772948 0.0
C_ C_ 0.57068 0.929229 0.792517 0.0
C_ C_ 0.618147 0.911178 0.789981 0.0
C_ C_ 0.627082 0.882648 0.809458 0.0
C_ C_ 0.585563 0.86949 0.828147 0.0
C_ C_ 0.5392 0.886727 0.830331 0.0
C_ C_ 0.533266 0.918426 0.814781 0.0
C_ C_ 0.518564 0.879281 0.858527 0.0
C_ C_ 0.591116 0.851402 0.854984 0.0
C_ C_ 0.502391 0.769702 0.907908 0.0
C_ C_ 0.527593 0.794377 0.888186 0.0
C_ C_ 0.528521 0.830968 0.894794 0.0
C_ C_ 0.50349 0.841934 0.920973 0.0
C_ C_ 0.48019 0.816344 0.940606 0.0
C_ C_ 0.365295 0.96377 0.832722 0.0
C_ C_ 0.334599 0.955274 0.860336 0.0
C_ C_ 0.615594 0.966227 0.863507 0.0
C_ C_ 0.586647 0.958221 0.889932 0.0
C_ C_ 0.612229 0.942891 0.914044 0.0
C_ C_ 0.330055 0.931971 0.911023 0.0
C_ C_ 0.357395 0.93621 0.883871 0.0
C_ C_ 0.586976 0.920597 0.935137 0.0
C_ C_ 0.333888 0.903324 0.93031 0.0
C_ C_ 0.569619 0.842775 0.510949 0.0
C_ C_ 0.583458 0.87247 0.992992 0.0
C_ C_ 0.607873 0.867802 0.965202 0.0
C_ C_ 0.619634 0.833356 0.956373 0.0
C_ C_ 0.605877 0.804352 0.975242 0.0
C_ C_ 0.43868 0.789998 0.522948 0.0
C_ C_ 0.42932 0.820771 0.542517 0.0
C_ C_ 0.381853 0.838822 0.539981 0.0
C_ C_ 0.372918 0.867352 0.559458 0.0
C_ C_ 0.414437 0.88051 0.578147 0.0
C_ C_ 0.4608 0.863273 0.580331 0.0
C_ C_ 0.466734 0.831574 0.564781 0.0
C_ C_ 0.481436 0.870719 0.608527 0.0
C_ C_ 0.408884 0.898598 0.604984 0.0
C_ C_ 0.497609 0.980298 0.657908 0.0
C_ C_ 0.472407 0.955623 0.638186 0.0
C_ C_ 0.471479 0.919032 0.644794 0.0
C_ C_ 0.49651 0.908066 0.670973 0.0
C_ C_ 0.51981 0.933656 0.690606 0.0
C_ C_ 0.634705 0.78623 0.582722 0.0
C_ C_ 0.665401 0.794726 0.610336 0.0
C_ C_ 0.384406 0.783773 0.613507 0.0
C_ C_ 0.413353 0.791779 0.639932 0.0
C_ C_ 0.387771 0.807109 0.664044 0.0
C_ C_ 0.669945 0.818029 0.661023 0.0
C_ C_ 0.642605 0.81379 0.633871 0.0
C_ C_ 0.413024 0.829403 0.685137 0.0
C_ C_ 0.666112 0.846676 0.68031 0.0
C_ C_ 0.430381 0.907225 0.760949 0.0
C_ C_ 0.416542 0.87753 0.742992 0.0
C_ C_ 0.392127 0.882198 0.715202 0.0
C_ C_ 0.380366 0.916644 0.706373 0.0
C_ C_ 0.394123 0.945648 0.725242 0.0
N_ N_ 0.519601 0.719087 0.566102 0.0
N_ N_ 0.450277 0.642872 0.626543 0.0
N_ N_ 0.378193 0.601806 0.55365 0.0
N_ N_ 0.420902 0.690701 0.4986 0.0
N_ N_ 0.480399 0.530913 0.816102 0.0
N_ N_ 0.549723 0.607128 0.876543 0.0
N_ N_ 0.621807 0.648194 0.80365 0.0
N_ N_ 0.579098 0.559299 0.7486 0.0
N_ N_ 0.480399 0.780913 0.933898 0.0
N_ N_ 0.549723 0.857128 0.873457 0.0
N_ N_ 0.621807 0.898194 0.94635 0.0
N_ N_ 0.579098 0.809299 0.00139979 0.0
N_ N_ 0.519601 0.969087 0.683898 0.0
N_ N_ 0.450277 0.892872 0.623457 0.0
N_ N_ 0.378193 0.851806 0.69635 0.0
N_ N_ 0.420902 0.940701 0.7514 0.0
O_ O_ 0.465517 0.514997 0.717173 0.0
O_ O_ 0.410651 0.534476 0.750578 0.0
O_ O_ 0.362123 0.655721 0.634274 0.0
O_ O_ 0.532653 0.620132 0.63586 0.0
O_ O_ 0.59232 0.551058 0.672831 0.0
O_ O_ 0.645557 0.510599 0.684197 0.0
O_ O_ 0.620206 0.605994 0.559287 0.0
O_ O_ 0.454156 0.569983 0.549288 0.0
O_ O_ 0.534483 0.735003 0.967173 0.0
O_ O_ 0.589349 0.715524 0.500578 0.0
O_ O_ 0.637877 0.594279 0.884274 0.0
O_ O_ 0.467347 0.629868 0.88586 0.0
O_ O_ 0.40768 0.698942 0.922831 0.0
O_ O_ 0.354443 0.739401 0.934197 0.0
O_ O_ 0.379794 0.644007 0.809287 0.0
O_ O_ 0.545844 0.680017 0.799288 0.0
O_ O_ 0.534483 0.985003 0.782827 0.0
O_ O_ 0.589349 0.965524 0.749422 0.0
O_ O_ 0.637877 0.844279 0.865726 0.0
O_ O_ 0.467347 0.879868 0.86414 0.0
O_ O_ 0.40768 0.948942 0.827169 0.0
O_ O_ 0.354443 0.989401 0.815803 0.0
O_ O_ 0.379794 0.894007 0.940713 0.0
O_ O_ 0.545844 0.930017 0.950712 0.0
O_ O_ 0.465517 0.764997 0.532827 0.0
O_ O_ 0.410651 0.784476 0.999422 0.0
O_ O_ 0.362123 0.905721 0.615726 0.0
O_ O_ 0.532653 0.870132 0.61414 0.0
O_ O_ 0.59232 0.801058 0.577169 0.0
O_ O_ 0.645557 0.760599 0.565803 0.0
O_ O_ 0.620206 0.855994 0.690713 0.0
O_ O_ 0.454156 0.819983 0.700712 0.0
Cd Cd 0.896835 0.0117191 0.21467 0.0
Cd Cd 0.769832 0.238281 0.46467 0.0
Cd Cd 0.769832 0.488281 0.28533 0.0
Cd Cd 0.896835 0.261719 0.0353296 0.0
H_ H_ 0.684627 0.0797452 0.225897 0.0
H_ H_ 0.00143726 0.129013 0.190298 0.0
H_ H_ 0.832225 0.0651784 0.179747 0.0
H_ H_ 0.833728 0.258413 0.0976618 0.0
H_ H_ 0.78881 0.214791 0.132561 0.0
H_ H_ 0.832514 0.129969 0.0743557 0.0
H_ H_ 0.872183 0.175225 0.0391002 0.0
H_ H_ 0.736312 0.0202596 0.154784 0.0
H_ H_ 0.788447 0.0367846 0.108694 0.0
H_ H_ 0.937697 0.0748764 0.118937 0.0
H_ H_ 0.778699 0.153364 0.46672 0.0
H_ H_ 0.756465 0.100974 0.998905 0.0
H_ H_ 0.693888 0.170902 0.0648075 0.0
H_ H_ 0.714938 0.221767 0.0303887 0.0
H_ H_ 0.98204 0.170255 0.475897 0.0
H_ H_ 0.665229 0.120987 0.440298 0.0
H_ H_ 0.834442 0.184822 0.429747 0.0
H_ H_ 0.832939 0.491587 0.347662 0.0
H_ H_ 0.877857 0.035209 0.382561 0.0
H_ H_ 0.834153 0.120031 0.324356 0.0
H_ H_ 0.794483 0.0747749 0.2891 0.0
H_ H_ 0.930355 0.22974 0.404784 0.0
H_ H_ 0.87822 0.213215 0.358694 0.0
H_ H_ 0.728969 0.175124 0.368937 0.0
H_ H_ 0.887968 0.0966362 0.21672 0.0
H_ H_ 0.910202 0.149026 0.248905 0.0
H_ H_ 0.972779 0.0790981 0.314808 0.0
H_ H_ 0.951728 0.0282328 0.280389 0.0
H_ H_ 0.98204 0.420255 0.274103 0.0
H_ H_ 0.665229 0.370987 0.309702 0.0
H_ H_ 0.834442 0.434822 0.320253 0.0
H_ H_ 0.832939 0.241587 0.402338 0.0
H_ H_ 0.877857 0.285209 0.367439 0.0
H_ H_ 0.834153 0.370031 0.425644 0.0
H_ H_ 0.794483 0.324775 0.4609 0.0
H_ H_ 0.930355 0.47974 0.345216 0.0
H_ H_ 0.87822 0.463215 0.391306 0.0
H_ H_ 0.728969 0.425124 0.381063 0.0
H_ H_ 0.887968 0.346636 0.0332805 0.0
H_ H_ 0.910202 0.399026 0.501095 0.0
H_ H_ 0.972779 0.329098 0.435192 0.0
H_ H_ 0.951728 0.278233 0.469611 0.0
H_ H_ 0.684627 0.329745 0.0241033 0.0
H_ H_ 0.00143727 0.379013 0.0597022 0.0
H_ H_ 0.832225 0.315178 0.0702528 0.0
H_ H_ 0.833728 0.00841344 0.152338 0.0
H_ H_ 0.78881 0.464791 0.117439 0.0
H_ H_ 0.832514 0.379969 0.175644 0.0
H_ H_ 0.872183 0.425225 0.2109 0.0
H_ H_ 0.736312 0.27026 0.0952161 0.0
H_ H_ 0.788447 0.286785 0.141306 0.0
H_ H_ 0.937697 0.324876 0.131063 0.0
H_ H_ 0.778699 0.403364 0.28328 0.0
H_ H_ 0.756465 0.350974 0.251095 0.0
H_ H_ 0.693888 0.420902 0.185192 0.0
H_ H_ 0.714938 0.471767 0.219611 0.0
C_ C_ 0.772014 0.0399984 0.227052 0.0
C_ C_ 0.762653 0.0707715 0.207483 0.0
C_ C_ 0.715187 0.0888219 0.210019 0.0
C_ C_ 0.706251 0.117352 0.190542 0.0
C_ C_ 0.747771 0.13051 0.171853 0.0
C_ C_ 0.794133 0.113273 0.169669 0.0
C_ C_ 0.800068 0.0815736 0.185219 0.0
C_ C_ 0.814769 0.120719 0.141473 0.0
C_ C_ 0.742217 0.148598 0.145016 0.0
C_ C_ 0.830943 0.230298 0.0920919 0.0
C_ C_ 0.80574 0.205623 0.111814 0.0
C_ C_ 0.804812 0.169032 0.105206 0.0
C_ C_ 0.829843 0.158066 0.0790275 0.0
C_ C_ 0.853144 0.183656 0.0593936 0.0
C_ C_ 0.968039 0.0362297 0.167278 0.0
C_ C_ 0.998734 0.0447258 0.139664 0.0
C_ C_ 0.717739 0.0337728 0.136493 0.0
C_ C_ 0.746686 0.0417792 0.110068 0.0
C_ C_ 0.721104 0.0571085 0.0859562 0.0
C_ C_ 0.00327862 0.0680289 0.0889766 0.0
C_ C_ 0.975938 0.0637899 0.116129 0.0
C_ C_ 0.746357 0.0794027 0.0648629 0.0
C_ C_ 0.999445 0.0966762 0.0696897 0.0
C_ C_ 0.763715 0.157225 0.489051 0.0
C_ C_ 0.749875 0.12753 0.00700845 0.0
C_ C_ 0.725461 0.132198 0.0347975 0.0
C_ C_ 0.713699 0.166644 0.0436273 0.0
C_ C_ 0.727456 0.195648 0.0247575 0.0
C_ C_ 0.894653 0.210002 0.477052 0.0
C_ C_ 0.904014 0.179229 0.457483 0.0
C_ C_ 0.95148 0.161178 0.460019 0.0
C_ C_ 0.960415 0.132648 0.440542 0.0
C_ C_ 0.918896 0.11949 0.421853 0.0
C_ C_ 0.872534 0.136727 0.419669 0.0
C_ C_ 0.866599 0.168426 0.435219 0.0
C_ C_ 0.851898 0.129281 0.391473 0.0
C_ C_ 0.924449 0.101402 0.395016 0.0
C_ C_ 0.835724 0.0197024 0.342092 0.0
C_ C_ 0.860926 0.044377 0.361814 0.0
C_ C_ 0.861855 0.0809681 0.355206 0.0
C_ C_ 0.836823 0.0919345 0.329027 0.0
C_ C_ 0.813523 0.0663441 0.309394 0.0
C_ C_ 0.698628 0.21377 0.417278 0.0
C_ C_ 0.667933 0.205274 0.389664 0.0
C_ C_ 0.948927 0.216227 0.386493 0.0
C_ C_ 0.91998 0.208221 0.360068 0.0
C_ C_ 0.945562 0.192891 0.335956 0.0
C_ C_ 0.663388 0.181971 0.338977 0.0
C_ C_ 0.690729 0.18621 0.366129 0.0
C_ C_ 0.92031 0.170597 0.314863 0.0
C_ C_ 0.667221 0.153324 0.31969 0.0
C_ C_ 0.902952 0.0927748 0.239051 0.0
C_ C_ 0.916792 0.12247 0.257008 0.0
C_ C_ 0.941206 0.117802 0.284798 0.0
C_ C_ 0.952968 0.0833558 0.293627 0.0
C_ C_ 0.93921 0.0543523 0.274758 0.0
C_ C_ 0.894653 0.460002 0.272948 0.0
C_ C_ 0.904014 0.429229 0.292517 0.0
C_ C_ 0.95148 0.411178 0.289981 0.0
C_ C_ 0.960415 0.382648 0.309458 0.0
C_ C_ 0.918896 0.36949 0.328147 0.0
C_ C_ 0.872534 0.386727 0.330331 0.0
C_ C_ 0.866599 0.418426 0.314781 0.0
C_ C_ 0.851898 0.379281 0.358527 0.0
C_ C_ 0.924449 0.351402 0.354984 0.0
C_ C_ 0.835724 0.269702 0.407908 0.0
C_ C_ 0.860926 0.294377 0.388186 0.0
C_ C_ 0.861855 0.330968 0.394794 0.0
C_ C_ 0.836823 0.341934 0.420973 0.0
C_ C_ 0.813523 0.316344 0.440606 0.0
C_ C_ 0.698628 0.46377 0.332722 0.0
C_ C_ 0.667933 0.455274 0.360336 0.0
C_ C_ 0.948927 0.466227 0.363507 0.0
C_ C_ 0.91998 0.458221 0.389932 0.0
C_ C_ 0.945562 0.442891 0.414044 0.0
C_ C_ 0.663388 0.431971 0.411023 0.0
C_ C_ 0.690729 0.43621 0.383871 0.0
C_ C_ 0.92031 0.420597 0.435137 0.0
C_ C_ 0.667221 0.403324 0.43031 0.0
C_ C_ 0.902952 0.342775 0.010949 0.0
C_ C_ 0.916792 0.37247 0.492992 0.0
C_ C_ 0.941206 0.367802 0.465202 0.0
C_ C_ 0.952968 0.333356 0.456373 0.0
C_ C_ 0.93921 0.304352 0.475242 0.0
C_ C_ 0.772014 0.289998 0.0229477 0.0
C_ C_ 0.762653 0.320771 0.0425173 0.0
C_ C_ 0.715187 0.338822 0.0399812 0.0
C_ C_ 0.706251 0.367352 0.0594584 0.0
C_ C_ 0.747771 0.38051 0.0781469 0.0
C_ C_ 0.794133 0.363273 0.0803307 0.0
C_ C_ 0.800068 0.331574 0.0647813 0.0
C_ C_ 0.814769 0.370719 0.108527 0.0
C_ C_ 0.742217 0.398598 0.104984 0.0
C_ C_ 0.830943 0.480298 0.157908 0.0
C_ C_ 0.80574 0.455623 0.138186 0.0
C_ C_ 0.804812 0.419032 0.144794 0.0
C_ C_ 0.829843 0.408066 0.170973 0.0
C_ C_ 0.853144 0.433656 0.190606 0.0
C_ C_ 0.968039 0.28623 0.0827219 0.0
C_ C_ 0.998734 0.294726 0.110336 0.0
C_ C_ 0.717739 0.283773 0.113507 0.0
C_ C_ 0.746686 0.291779 0.139932 0.0
C_ C_ 0.721104 0.307109 0.164044 0.0
C_ C_ 0.00327863 0.318029 0.161023 0.0
C_ C_ 0.975938 0.31379 0.133871 0.0
C_ C_ 0.746357 0.329403 0.185137 0.0
C_ C_ 0.999445 0.346676 0.18031 0.0
C_ C_ 0.763715 0.407225 0.260949 0.0
C_ C_ 0.749875 0.37753 0.242992 0.0
C_ C_ 0.725461 0.382198 0.215202 0.0
C_ C_ 0.713699 0.416644 0.206373 0.0
C_ C_ 0.727456 0.445648 0.225242 0.0
N_ N_ 0.852935 0.219087 0.066102 0.0
N_ N_ 0.783611 0.142872 0.126543 0.0
N_ N_ 0.711527 0.101806 0.0536496 0.0
N_ N_ 0.754235 0.190701 0.9986 0.0
N_ N_ 0.813732 0.030913 0.316102 0.0
N_ N_ 0.883056 0.107128 0.376543 0.0
N_ N_ 0.95514 0.148194 0.30365 0.0
N_ N_ 0.912431 0.0592986 0.2486 0.0
N_ N_ 0.813732 0.280913 0.433898 0.0
N_ N_ 0.883056 0.357128 0.373457 0.0
N_ N_ 0.95514 0.398194 0.44635 0.0
N_ N_ 0.912431 0.309299 0.5014 0.0
N_ N_ 0.852935 0.469087 0.183898 0.0
N_ N_ 0.783611 0.392872 0.123457 0.0
N_ N_ 0.711527 0.351806 0.19635 0.0
N_ N_ 0.754235 0.440701 0.2514 0.0
O_ O_ 0.79885 0.0149975 0.217173 0.0
O_ O_ 0.743984 0.0344756 0.250578 0.0
O_ O_ 0.695457 0.155721 0.134274 0.0
O_ O_ 0.865986 0.120132 0.13586 0.0
O_ O_ 0.925653 0.0510577 0.172831 0.0
O_ O_ 0.978891 0.0105991 0.184197 0.0
O_ O_ 0.95354 0.105994 0.059287 0.0
O_ O_ 0.78749 0.0699826 0.0492879 0.0
O_ O_ 0.867816 0.235003 0.467173 0.0
O_ O_ 0.922682 0.215524 0.000578323 0.0
O_ O_ 0.97121 0.094279 0.384274 0.0
O_ O_ 0.80068 0.129868 0.38586 0.0
O_ O_ 0.741013 0.198942 0.422831 0.0
O_ O_ 0.687776 0.239401 0.434197 0.0
O_ O_ 0.713127 0.144006 0.309287 0.0
O_ O_ 0.879177 0.180017 0.299288 0.0
O_ O_ 0.867816 0.485003 0.282827 0.0
O_ O_ 0.922682 0.465524 0.249422 0.0
O_ O_ 0.97121 0.344279 0.365726 0.0
O_ O_ 0.80068 0.379868 0.36414 0.0
O_ O_ 0.741013 0.448942 0.327169 0.0
O_ O_ 0.687776 0.489401 0.315803 0.0
O_ O_ 0.713127 0.394006 0.440713 0.0
O_ O_ 0.879177 0.430017 0.450712 0.0
O_ O_ 0.79885 0.264997 0.032827 0.0
O_ O_ 0.743984 0.284476 0.499422 0.0
O_ O_ 0.695457 0.405721 0.115726 0.0
O_ O_ 0.865986 0.370132 0.11414 0.0
O_ O_ 0.925653 0.301058 0.0771694 0.0
O_ O_ 0.978891 0.260599 0.0658027 0.0
O_ O_ 0.95354 0.355994 0.190713 0.0
O_ O_ 0.78749 0.319983 0.200712 0.0
Cd Cd 0.896835 0.0117191 0.71467 0.0
Cd Cd 0.769832 0.238281 0.96467 0.0
Cd Cd 0.769832 0.488281 0.78533 0.0
Cd Cd 0.896835 0.261719 0.53533 0.0
H_ H_ 0.684627 0.0797452 0.725897 0.0
H_ H_ 0.00143726 0.129013 0.690298 0.0
H_ H_ 0.832225 0.0651784 0.679747 0.0
H_ H_ 0.833728 0.258413 0.597662 0.0
H_ H_ 0.78881 0.214791 0.632561 0.0
H_ H_ 0.832514 0.129969 0.574356 0.0
H_ H_ 0.872183 0.175225 0.5391 0.0
H_ H_ 0.736312 0.0202596 0.654784 0.0
H_ H_ 0.788447 0.0367846 0.608694 0.0
H_ H_ 0.937697 0.0748764 0.618937 0.0
H_ H_ 0.778699 0.153364 0.96672 0.0
H_ H_ 0.756465 0.100974 0.498905 0.0
H_ H_ 0.693888 0.170902 0.564808 0.0
H_ H_ 0.714938 0.221767 0.530389 0.0
H_ H_ 0.98204 0.170255 0.975897 0.0
H_ H_ 0.665229 0.120987 0.940298 0.0
H_ H_ 0.834442 0.184822 0.929747 0.0
H_ H_ 0.832939 0.491587 0.847662 0.0
H_ H_ 0.877857 0.035209 0.882561 0.0
H_ H_ 0.834153 0.120031 0.824356 0.0
H_ H_ 0.794483 0.0747749 0.7891 0.0
H_ H_ 0.930355 0.22974 0.904784 0.0
H_ H_ 0.87822 0.213215 0.858694 0.0
H_ H_ 0.728969 0.175124 0.868937 0.0
H_ H_ 0.887968 0.0966362 0.71672 0.0
H_ H_ 0.910202 0.149026 0.748905 0.0
H_ H_ 0.972779 0.0790981 0.814808 0.0
H_ H_ 0.951728 0.0282328 0.780389 0.0
H_ H_ 0.98204 0.420255 0.774103 0.0
H_ H_ 0.665229 0.370987 0.809702 0.0
H_ H_ 0.834442 0.434822 0.820253 0.0
H_ H_ 0.832939 0.241587 0.902338 0.0
H_ H_ 0.877857 0.285209 0.867439 0.0
H_ H_ 0.834153 0.370031 0.925644 0.0
H_ H_ 0.794483 0.324775 0.9609 0.0
H_ H_ 0.930355 0.47974 0.845216 0.0
H_ H_ 0.87822 0.463215 0.891306 0.0
H_ H_ 0.728969 0.425124 0.881063 0.0
H_ H_ 0.887968 0.346636 0.53328 0.0
H_ H_ 0.910202 0.399026 0.00109454 0.0
H_ H_ 0.972779 0.329098 0.935192 0.0
H_ H_ 0.951728 0.278233 0.969611 0.0
H_ H_ 0.684627 0.329745 0.524103 0.0
H_ H_ 0.00143727 0.379013 0.559702 0.0
H_ H_ 0.832225 0.315178 0.570253 0.0
H_ H_ 0.833728 0.00841344 0.652338 0.0
H_ H_ 0.78881 0.464791 0.617439 0.0
H_ H_ 0.832514 0.379969 0.675644 0.0
H_ H_ 0.872183 0.425225 0.7109 0.0
H_ H_ 0.736312 0.27026 0.595216 0.0
H_ H_ 0.788447 0.286785 0.641306 0.0
H_ H_ 0.937697 0.324876 0.631063 0.0
H_ H_ 0.778699 0.403364 0.78328 0.0
H_ H_ 0.756465 0.350974 0.751095 0.0
H_ H_ 0.693888 0.420902 0.685192 0.0
H_ H_ 0.714938 0.471767 0.719611 0.0
C_ C_ 0.772014 0.0399984 0.727052 0.0
C_ C_ 0.762653 0.0707715 0.707483 0.0
C_ C_ 0.715187 0.0888219 0.710019 0.0
C_ C_ 0.706251 0.117352 0.690542 0.0
C_ C_ 0.747771 0.13051 0.671853 0.0
C_ C_ 0.794133 0.113273 0.669669 0.0
C_ C_ 0.800068 0.0815736 0.685219 0.0
C_ C_ 0.814769 0.120719 0.641473 0.0
C_ C_ 0.742217 0.148598 0.645016 0.0
C_ C_ 0.830943 0.230298 0.592092 0.0
C_ C_ 0.80574 0.205623 0.611814 0.0
C_ C_ 0.804812 0.169032 0.605206 0.0
C_ C_ 0.829843 0.158066 0.579027 0.0
C_ C_ 0.853144 0.183656 0.559394 0.0
C_ C_ 0.968039 0.0362297 0.667278 0.0
C_ C_ 0.998734 0.0447258 0.639664 0.0
C_ C_ 0.717739 0.0337728 0.636493 0.0
C_ C_ 0.746686 0.0417792 0.610068 0.0
C_ C_ 0.721104 0.0571085 0.585956 0.0
C_ C_ 0.00327862 0.0680289 0.588977 0.0
C_ C_ 0.975938 0.0637899 0.616129 0.0
C_ C_ 0.746357 0.0794027 0.564863 0.0
C_ C_ 0.999445 0.0966762 0.56969 0.0
C_ C_ 0.763715 0.157225 0.989051 0.0
C_ C_ 0.749875 0.12753 0.507008 0.0
C_ C_ 0.725461 0.132198 0.534798 0.0
C_ C_ 0.713699 0.166644 0.543627 0.0
C_ C_ 0.727456 0.195648 0.524758 0.0
C_ C_ 0.894653 0.210002 0.977052 0.0
C_ C_ 0.904014 0.179229 0.957483 0.0
C_ C_ 0.95148 0.161178 0.960019 0.0
C_ C_ 0.960415 0.132648 0.940542 0.0
C_ C_ 0.918896 0.11949 0.921853 0.0
C_ C_ 0.872534 0.136727 0.919669 0.0
C_ C_ 0.866599 0.168426 0.935219 0.0
C_ C_ 0.851898 0.129281 0.891473 0.0
C_ C_ 0.924449 0.101402 0.895016 0.0
C_ C_ 0.835724 0.0197024 0.842092 0.0
C_ C_ 0.860926 0.044377 0.861814 0.0
C_ C_ 0.861855 0.0809681 0.855206 0.0
C_ C_ 0.836823 0.0919345 0.829027 0.0
C_ C_ 0.813523 0.0663441 0.809394 0.0
C_ C_ 0.698628 0.21377 0.917278 0.0
C_ C_ 0.667933 0.205274 0.889664 0.0
C_ C_ 0.948927 0.216227 0.886493 0.0
C_ C_ 0.91998 0.208221 0.860068 0.0
C_ C_ 0.945562 0.192891 0.835956 0.0
C_ C_ 0.663388 0.181971 0.838977 0.0
C_ C_ 0.690729 0.18621 0.866129 0.0
C_ C_ 0.92031 0.170597 0.814863 0.0
C_ C_ 0.667221 0.153324 0.81969 0.0
C_ C_ 0.902952 0.0927748 0.739051 0.0
C_ C_ 0.916792 0.12247 0.757008 0.0
C_ C_ 0.941206 0.117802 0.784798 0.0
C_ C_ 0.952968 0.0833558 0.793627 0.0
C_ C_ 0.93921 0.0543523 0.774758 0.0
C_ C_ 0.894653 0.460002 0.772948 0.0
C_ C_ 0.904014 0.429229 0.792517 0.0
C_ C_ 0.95148 0.411178 0.789981 0.0
C_ C_ 0.960415 0.382648 0.809458 0.0
C_ C_ 0.918896 0.36949 0.828147 0.0
C_ C_ 0.872534 0.386727 0.830331 0.0
C_ C_ 0.866599 0.418426 0.814781 0.0
C_ C_ 0.851898 0.379281 0.858527 0.0
C_ C_ 0.924449 0.351402 0.854984 0.0
C_ C_ 0.835724 0.269702 0.907908 0.0
C_ C_ 0.860926 0.294377 0.888186 0.0
C_ C_ 0.861855 0.330968 0.894794 0.0
C_ C_ 0.836823 0.341934 0.920973 0.0
C_ C_ 0.813523 0.316344 0.940606 0.0
C_ C_ 0.698628 0.46377 0.832722 0.0
C_ C_ 0.667933 0.455274 0.860336 0.0
C_ C_ 0.948927 0.466227 0.863507 0.0
C_ C_ 0.91998 0.458221 0.889932 0.0
C_ C_ 0.945562 0.442891 0.914044 0.0
C_ C_ 0.663388 0.431971 0.911023 0.0
C_ C_ 0.690729 0.43621 0.883871 0.0
C_ C_ 0.92031 0.420597 0.935137 0.0
C_ C_ 0.667221 0.403324 0.93031 0.0
C_ C_ 0.902952 0.342775 0.510949 0.0
C_ C_ 0.916792 0.37247 0.992992 0.0
C_ C_ 0.941206 0.367802 0.965202 0.0
C_ C_ 0.952968 0.333356 0.956373 0.0
C_ C_ 0.93921 0.304352 0.975242 0.0
C_ C_ 0.772014 0.289998 0.522948 0.0
C_ C_ 0.762653 0.320771 0.542517 0.0
C_ C_ 0.715187 0.338822 0.539981 0.0
C_ C_ 0.706251 0.367352 0.559458 0.0
C_ C_ 0.747771 0.38051 0.578147 0.0
C_ C_ 0.794133 0.363273 0.580331 0.0
C_ C_ 0.800068 0.331574 0.564781 0.0
C_ C_ 0.814769 0.370719 0.608527 0.0
C_ C_ 0.742217 0.398598 0.604984 0.0
C_ C_ 0.830943 0.480298 0.657908 0.0
C_ C_ 0.80574 0.455623 0.638186 0.0
C_ C_ 0.804812 0.419032 0.644794 0.0
C_ C_ 0.829843 0.408066 0.670973 0.0
C_ C_ 0.853144 0.433656 0.690606 0.0
C_ C_ 0.968039 0.28623 0.582722 0.0
C_ C_ 0.998734 0.294726 0.610336 0.0
C_ C_ 0.717739 0.283773 0.613507 0.0
C_ C_ 0.746686 0.291779 0.639932 0.0
C_ C_ 0.721104 0.307109 0.664044 0.0
C_ C_ 0.00327863 0.318029 0.661023 0.0
C_ C_ 0.975938 0.31379 0.633871 0.0
C_ C_ 0.746357 0.329403 0.685137 0.0
C_ C_ 0.999445 0.346676 0.68031 0.0
C_ C_ 0.763715 0.407225 0.760949 0.0
C_ C_ 0.749875 0.37753 0.742992 0.0
C_ C_ 0.725461 0.382198 0.715202 0.0
C_ C_ 0.713699 0.416644 0.706373 0.0
C_ C_ 0.727456 0.445648 0.725242 0.0
N_ N_ 0.852935 0.219087 0.566102 0.0
N_ N_ 0.783611 0.142872 0.626543 0.0
N_ N_ 0.711527 0.101806 0.55365 0.0
N_ N_ 0.754235 0.190701 0.4986 0.0
N_ N_ 0.813732 0.030913 0.816102 0.0
N_ N_ 0.883056 0.107128 0.876543 0.0
N_ N_ 0.95514 0.148194 0.80365 0.0
N_ N_ 0.912431 0.0592986 0.7486 0.0
N_ N_ 0.813732 0.280913 0.933898 0.0
N_ N_ 0.883056 0.357128 0.873457 0.0
N_ N_ 0.95514 0.398194 0.94635 0.0
N_ N_ 0.912431 0.309299 0.00139979 0.0
N_ N_ 0.852935 0.469087 0.683898 0.0
N_ N_ 0.783611 0.392872 0.623457 0.0
N_ N_ 0.711527 0.351806 0.69635 0.0
N_ N_ 0.754235 0.440701 0.7514 0.0
O_ O_ 0.79885 0.0149975 0.717173 0.0
O_ O_ 0.743984 0.0344756 0.750578 0.0
O_ O_ 0.695457 0.155721 0.634274 0.0
O_ O_ 0.865986 0.120132 0.63586 0.0
O_ O_ 0.925653 0.0510577 0.672831 0.0
O_ O_ 0.978891 0.0105991 0.684197 0.0
O_ O_ 0.95354 0.105994 0.559287 0.0
O_ O_ 0.78749 0.0699826 0.549288 0.0
O_ O_ 0.867816 0.235003 0.967173 0.0
O_ O_ 0.922682 0.215524 0.500578 0.0
O_ O_ 0.97121 0.094279 0.884274 0.0
O_ O_ 0.80068 0.129868 0.88586 0.0
O_ O_ 0.741013 0.198942 0.922831 0.0
O_ O_ 0.687776 0.239401 0.934197 0.0
O_ O_ 0.713127 0.144006 0.809287 0.0
O_ O_ 0.879177 0.180017 0.799288 0.0
O_ O_ 0.867816 0.485003 0.782827 0.0
O_ O_ 0.922682 0.465524 0.749422 0.0
O_ O_ 0.97121 0.344279 0.865726 0.0
O_ O_ 0.80068 0.379868 0.86414 0.0
O_ O_ 0.741013 0.448942 0.827169 0.0
O_ O_ 0.687776 0.489401 0.815803 0.0
O_ O_ 0.713127 0.394006 0.940713 0.0
O_ O_ 0.879177 0.430017 0.950712 0.0
O_ O_ 0.79885 0.264997 0.532827 0.0
O_ O_ 0.743984 0.284476 0.999422 0.0
O_ O_ 0.695457 0.405721 0.615726 0.0
O_ O_ 0.865986 0.370132 0.61414 0.0
O_ O_ 0.925653 0.301058 0.577169 0.0
O_ O_ 0.978891 0.260599 0.565803 0.0
O_ O_ 0.95354 0.355994 0.690713 0.0
O_ O_ 0.78749 0.319983 0.700712 0.0
Cd Cd 0.896835 0.511719 0.21467 0.0
Cd Cd 0.769832 0.738281 0.46467 0.0
Cd Cd 0.769832 0.988281 0.28533 0.0
Cd Cd 0.896835 0.761719 0.0353296 0.0
H_ H_ 0.684627 0.579745 0.225897 0.0
H_ H_ 0.00143727 0.629013 0.190298 0.0
H_ H_ 0.832225 0.565178 0.179747 0.0
H_ H_ 0.833728 0.758413 0.0976618 0.0
H_ H_ 0.78881 0.714791 0.132561 0.0
H_ H_ 0.832514 0.629969 0.0743557 0.0
H_ H_ 0.872183 0.675225 0.0391002 0.0
H_ H_ 0.736312 0.52026 0.154784 0.0
H_ H_ 0.788447 0.536785 0.108694 0.0
H_ H_ 0.937697 0.574876 0.118937 0.0
H_ H_ 0.778699 0.653364 0.46672 0.0
H_ H_ 0.756465 0.600974 0.998905 0.0
H_ H_ 0.693888 0.670902 0.0648075 0.0
H_ H_ 0.714938 0.721767 0.0303887 0.0
H_ H_ 0.98204 0.670255 0.475897 0.0
H_ H_ 0.665229 0.620987 0.440298 0.0
H_ H_ 0.834442 0.684822 0.429747 0.0
H_ H_ 0.832939 0.991587 0.347662 0.0
H_ H_ 0.877857 0.535209 0.382561 0.0
H_ H_ 0.834153 0.620031 0.324356 0.0
H_ H_ 0.794483 0.574775 0.2891 0.0
H_ H_ 0.930355 0.72974 0.404784 0.0
H_ H_ 0.87822 0.713215 0.358694 0.0
H_ H_ 0.728969 0.675124 0.368937 0.0
H_ H_ 0.887968 0.596636 0.21672 0.0
H_ H_ 0.910202 0.649026 0.248905 0.0
H_ H_ 0.972779 0.579098 0.314808 0.0
H_ H_ 0.951728 0.528233 0.280389 0.0
H_ H_ 0.98204 0.920255 0.274103 0.0
H_ H_ 0.665229 0.870987 0.309702 0.0
H_ H_ 0.834442 0.934822 0.320253 0.0
H_ H_ 0.832939 0.741587 0.402338 0.0
H_ H_ 0.877857 0.785209 0.367439 0.0
H_ H_ 0.834153 0.870031 0.425644 0.0
H_ H_ 0.794483 0.824775 0.4609 0.0
H_ H_ 0.930355 0.97974 0.345216 0.0
H_ H_ 0.87822 0.963215 0.391306 0.0
H_ H_ 0.728969 0.925124 0.381063 0.0
H_ H_ 0.887968 0.846636 0.0332805 0.0
H_ H_ 0.910202 0.899026 0.501095 0.0
H_ H_ 0.972779 0.829098 0.435192 0.0
H_ H_ 0.951728 0.778233 0.469611 0.0
H_ H_ 0.684627 0.829745 0.0241033 0.0
H_ H_ 0.00143726 0.879013 0.0597022 0.0
H_ H_ 0.832225 0.815178 0.0702528 0.0
H_ H_ 0.833728 0.508413 0.152338 0.0
H_ H_ 0.78881 0.964791 0.117439 0.0
H_ H_ 0.832514 0.879969 0.175644 0.0
H_ H_ 0.872183 0.925225 0.2109 0.0
H_ H_ 0.736312 0.77026 0.0952161 0.0
H_ H_ 0.788447 0.786785 0.141306 0.0
H_ H_ 0.937697 0.824876 0.131063 0.0
H_ H_ 0.778699 0.903364 0.28328 0.0
H_ H_ 0.756465 0.850974 0.251095 0.0
H_ H_ 0.693888 0.920902 0.185192 0.0
H_ H_ 0.714938 0.971767 0.219611 0.0
C_ C_ 0.772014 0.539998 0.227052 0.0
C_ C_ 0.762653 0.570771 0.207483 0.0
C_ C_ 0.715187 0.588822 0.210019 0.0
C_ C_ 0.706251 0.617352 0.190542 0.0
C_ C_ 0.747771 0.63051 0.171853 0.0
C_ C_ 0.794133 0.613273 0.169669 0.0
C_ C_ 0.800068 0.581574 0.185219 0.0
C_ C_ 0.814769 0.620719 0.141473 0.0
C_ C_ 0.742217 0.648598 0.145016 0.0
C_ C_ 0.830943 0.730298 0.0920919 0.0
C_ C_ 0.80574 0.705623 0.111814 0.0
C_ C_ 0.804812 0.669032 0.105206 0.0
C_ C_ 0.829843 0.658066 0.0790275 0.0
C_ C_ 0.853144 0.683656 0.0593936 0.0
C_ C_ 0.968039 0.53623 0.167278 0.0
C_ C_ 0.998734 0.544726 0.139664 0.0
C_ C_ 0.717739 0.533773 0.136493 0.0
C_ C_ 0.746686 0.541779 0.110068 0.0
C_ C_ 0.721104 0.557109 0.0859562 0.0
C_ C_ 0.00327863 0.568029 0.0889766 0.0
C_ C_ 0.975938 0.56379 0.116129 0.0
C_ C_ 0.746357 0.579403 0.0648629 0.0
C_ C_ 0.999445 0.596676 0.0696897 0.0
C_ C_ 0.763715 0.657225 0.489051 0.0
C_ C_ 0.749875 0.62753 0.00700845 0.0
C_ C_ 0.725461 0.632198 0.0347975 0.0
C_ C_ 0.713699 0.666644 0.0436273 0.0
C_ C_ 0.727456 0.695648 0.0247575 0.0
C_ C_ 0.894653 0.710002 0.477052 0.0
C_ C_ 0.904014 0.679229 0.457483 0.0
C_ C_ 0.95148 0.661178 0.460019 0.0
C_ C_ 0.960415 0.632648 0.440542 0.0
C_ C_ 0.918896 0.61949 0.421853 0.0
C_ C_ 0.872534 0.636727 0.419669 0.0
C_ C_ 0.866599 0.668426 0.435219 0.0
C_ C_ 0.851898 0.629281 0.391473 0.0
C_ C_ 0.924449 0.601402 0.395016 0.0
C_ C_ 0.835724 0.519702 0.342092 0.0
C_ C_ 0.860926 0.544377 0.361814 0.0
C_ C_ 0.861855 0.580968 0.355206 0.0
C_ C_ 0.836823 0.591934 0.329027 0.0
C_ C_ 0.813523 0.566344 0.309394 0.0
C_ C_ 0.698628 0.71377 0.417278 0.0
C_ C_ 0.667933 0.705274 0.389664 0.0
C_ C_ 0.948927 0.716227 0.386493 0.0
C_ C_ 0.91998 0.708221 0.360068 0.0
C_ C_ 0.945562 0.692891 0.335956 0.0
C_ C_ 0.663388 0.681971 0.338977 0.0
C_ C_ 0.690729 0.68621 0.366129 0.0
C_ C_ 0.92031 0.670597 0.314863 0.0
C_ C_ 0.667221 0.653324 0.31969 0.0
C_ C_ 0.902952 0.592775 0.239051 0.0
C_ C_ 0.916792 0.62247 0.257008 0.0
C_ C_ 0.941206 0.617802 0.284798 0.0
C_ C_ 0.952968 0.583356 0.293627 0.0
C_ C_ 0.93921 0.554352 0.274758 0.0
C_ C_ 0.894653 0.960002 0.272948 0.0
C_ C_ 0.904014 0.929229 0.292517 0.0
C_ C_ 0.95148 0.911178 0.289981 0.0
C_ C_ 0.960415 0.882648 0.309458 0.0
C_ C_ 0.918896 0.86949 0.328147 0.0
C_ C_ 0.872534 0.886727 0.330331 0.0
C_ C_ 0.866599 0.918426 0.314781 0.0
C_ C_ 0.851898 0.879281 0.358527 0.0
C_ C_ 0.924449 0.851402 0.354984 0.0
C_ C_ 0.835724 0.769702 0.407908 0.0
C_ C_ 0.860926 0.794377 0.388186 0.0
C_ C_ 0.861855 0.830968 0.394794 0.0
C_ C_ 0.836823 0.841934 0.420973 0.0
C_ C_ 0.813523 0.816344 0.440606 0.0
C_ C_ 0.698628 0.96377 0.332722 0.0
C_ C_ 0.667933 0.955274 0.360336 0.0
C_ C_ 0.948927 0.966227 0.363507 0.0
C_ C_ 0.91998 0.958221 0.389932 0.0
C_ C_ 0.945562 0.942891 0.414044 0.0
C_ C_ 0.663388 0.931971 0.411023 0.0
C_ C_ 0.690729 0.93621 0.383871 0.0
C_ C_ 0.92031 0.920597 0.435137 0.0
C_ C_ 0.667221 0.903324 0.43031 0.0
C_ C_ 0.902952 0.842775 0.010949 0.0
C_ C_ 0.916792 0.87247 0.492992 0.0
C_ C_ 0.941206 0.867802 0.465202 0.0
C_ C_ 0.952968 0.833356 0.456373 0.0
C_ C_ 0.93921 0.804352 0.475242 0.0
C_ C_ 0.772014 0.789998 0.0229477 0.0
C_ C_ 0.762653 0.820771 0.0425173 0.0
C_ C_ 0.715187 0.838822 0.0399812 0.0
C_ C_ 0.706251 0.867352 0.0594584 0.0
C_ C_ 0.747771 0.88051 0.0781469 0.0
C_ C_ 0.794133 0.863273 0.0803307 0.0
C_ C_ 0.800068 0.831574 0.0647812 0.0
C_ C_ 0.814769 0.870719 0.108527 0.0
C_ C_ 0.742217 0.898598 0.104984 0.0
C_ C_ 0.830943 0.980298 0.157908 0.0
C_ C_ 0.80574 0.955623 0.138186 0.0
C_ C_ 0.804812 0.919032 0.144794 0.0
C_ C_ 0.829843 0.908066 0.170973 0.0
C_ C_ 0.853144 0.933656 0.190606 0.0
C_ C_ 0.968039 0.78623 0.0827219 0.0
C_ C_ 0.998734 0.794726 0.110336 0.0
C_ C_ 0.717739 0.783773 0.113507 0.0
C_ C_ 0.746686 0.791779 0.139932 0.0
C_ C_ 0.721104 0.807109 0.164044 0.0
C_ C_ 0.00327862 0.818029 0.161023 0.0
C_ C_ 0.975938 0.81379 0.133871 0.0
C_ C_ 0.746357 0.829403 0.185137 0.0
C_ C_ 0.999445 0.846676 0.18031 0.0
C_ C_ 0.763715 0.907225 0.260949 0.0
C_ C_ 0.749875 0.87753 0.242992 0.0
C_ C_ 0.725461 0.882198 0.215202 0.0
C_ C_ 0.713699 0.916644 0.206373 0.0
C_ C_ 0.727456 0.945648 0.225242 0.0
N_ N_ 0.852935 0.719087 0.066102 0.0
N_ N_ 0.783611 0.642872 0.126543 0.0
N_ N_ 0.711527 0.601806 0.0536496 0.0
N_ N_ 0.754235 0.690701 0.9986 0.0
N_ N_ 0.813732 0.530913 0.316102 0.0
N_ N_ 0.883056 0.607128 0.376543 0.0
N_ N_ 0.95514 0.648194 0.30365 0.0
N_ N_ 0.912431 0.559299 0.2486 0.0
N_ N_ 0.813732 0.780913 0.433898 0.0
N_ N_ 0.883056 0.857128 0.373457 0.0
N_ N_ 0.95514 0.898194 0.44635 0.0
N_ N_ 0.912431 0.809299 0.5014 0.0
N_ N_ 0.852935 0.969087 0.183898 0.0
N_ N_ 0.783611 0.892872 0.123457 0.0
N_ N_ 0.711527 0.851806 0.19635 0.0
N_ N_ 0.754235 0.940701 0.2514 0.0
O_ O_ 0.79885 0.514997 0.217173 0.0
O_ O_ 0.743984 0.534476 0.250578 0.0
O_ O_ 0.695457 0.655721 0.134274 0.0
O_ O_ 0.865986 0.620132 0.13586 0.0
O_ O_ 0.925653 0.551058 0.172831 0.0
O_ O_ 0.978891 0.510599 0.184197 0.0
O_ O_ 0.95354 0.605994 0.059287 0.0
O_ O_ 0.78749 0.569983 0.0492879 0.0
O_ O_ 0.867816 0.735003 0.467173 0.0
O_ O_ 0.922682 0.715524 0.000578323 0.0
O_ O_ 0.97121 0.594279 0.384274 0.0
O_ O_ 0.80068 0.629868 0.38586 0.0
O_ O_ 0.741013 0.698942 0.422831 0.0
O_ O_ 0.687776 0.739401 0.434197 0.0
O_ O_ 0.713127 0.644007 0.309287 0.0
O_ O_ 0.879177 0.680017 0.299288 0.0
O_ O_ 0.867816 0.985003 0.282827 0.0
O_ O_ 0.922682 0.965524 0.249422 0.0
O_ O_ 0.97121 0.844279 0.365726 0.0
O_ O_ 0.80068 0.879868 0.36414 0.0
O_ O_ 0.741013 0.948942 0.327169 0.0
O_ O_ 0.687776 0.989401 0.315803 0.0
O_ O_ 0.713127 0.894007 0.440713 0.0
O_ O_ 0.879177 0.930017 0.450712 0.0
O_ O_ 0.79885 0.764997 0.032827 0.0
O_ O_ 0.743984 0.784476 0.499422 0.0
O_ O_ 0.695457 0.905721 0.115726 0.0
O_ O_ 0.865986 0.870132 0.11414 0.0
O_ O_ 0.925653 0.801058 0.0771694 0.0
O_ O_ 0.978891 0.760599 0.0658027 0.0
O_ O_ 0.95354 0.855994 0.190713 0.0
O_ O_ 0.78749 0.819983 0.200712 0.0
Cd Cd 0.896835 0.511719 0.71467 0.0
Cd Cd 0.769832 0.738281 0.96467 0.0
Cd Cd 0.769832 0.988281 0.78533 0.0
Cd Cd 0.896835 0.761719 0.53533 0.0
H_ H_ 0.684627 0.579745 0.725897 0.0
H_ H_ 0.00143727 0.629013 0.690298 0.0
H_ H_ 0.832225 0.565178 0.679747 0.0
H_ H_ 0.833728 0.758413 0.597662 0.0
H_ H_ 0.78881 0.714791 0.632561 0.0
H_ H_ 0.832514 0.629969 0.574356 0.0
H_ H_ 0.872183 0.675225 0.5391 0.0
H_ H_ 0.736312 0.52026 0.654784 0.0
H_ H_ 0.788447 0.536785 0.608694 0.0
H_ H_ 0.937697 0.574876 0.618937 0.0
H_ H_ 0.778699 0.653364 0.96672 0.0
H_ H_ 0.756465 0.600974 0.498905 0.0
H_ H_ 0.693888 0.670902 0.564808 0.0
H_ H_ 0.714938 0.721767 0.530389 0.0
H_ H_ 0.98204 0.670255 0.975897 0.0
H_ H_ 0.665229 0.620987 0.940298 0.0
H_ H_ 0.834442 0.684822 0.929747 0.0
H_ H_ 0.832939 0.991587 0.847662 0.0
H_ H_ 0.877857 0.535209 0.882561 0.0
H_ H_ 0.834153 0.620031 0.824356 0.0
H_ H_ 0.794483 0.574775 0.7891 0.0
H_ H_ 0.930355 0.72974 0.904784 0.0
H_ H_ 0.87822 0.713215 0.858694 0.0
H_ H_ 0.728969 0.675124 0.868937 0.0
H_ H_ 0.887968 0.596636 0.71672 0.0
H_ H_ 0.910202 0.649026 0.748905 0.0
H_ H_ 0.972779 0.579098 0.814808 0.0
H_ H_ 0.951728 0.528233 0.780389 0.0
H_ H_ 0.98204 0.920255 0.774103 0.0
H_ H_ 0.665229 0.870987 0.809702 0.0
H_ H_ 0.834442 0.934822 0.820253 0.0
H_ H_ 0.832939 0.741587 0.902338 0.0
H_ H_ 0.877857 0.785209 0.867439 0.0
H_ H_ 0.834153 0.870031 0.925644 0.0
H_ H_ 0.794483 0.824775 0.9609 0.0
H_ H_ 0.930355 0.97974 0.845216 0.0
H_ H_ 0.87822 0.963215 0.891306 0.0
H_ H_ 0.728969 0.925124 0.881063 0.0
H_ H_ 0.887968 0.846636 0.53328 0.0
H_ H_ 0.910202 0.899026 0.00109454 0.0
H_ H_ 0.972779 0.829098 0.935192 0.0
H_ H_ 0.951728 0.778233 0.969611 0.0
H_ H_ 0.684627 0.829745 0.524103 0.0
H_ H_ 0.00143726 0.879013 0.559702 0.0
H_ H_ 0.832225 0.815178 0.570253 0.0
H_ H_ 0.833728 0.508413 0.652338 0.0
H_ H_ 0.78881 0.964791 0.617439 0.0
H_ H_ 0.832514 0.879969 0.675644 0.0
H_ H_ 0.872183 0.925225 0.7109 0.0
H_ H_ 0.736312 0.77026 0.595216 0.0
H_ H_ 0.788447 0.786785 0.641306 0.0
H_ H_ 0.937697 0.824876 0.631063 0.0
H_ H_ 0.778699 0.903364 0.78328 0.0
H_ H_ 0.756465 0.850974 0.751095 0.0
H_ H_ 0.693888 0.920902 0.685192 0.0
H_ H_ 0.714938 0.971767 0.719611 0.0
C_ C_ 0.772014 0.539998 0.727052 0.0
C_ C_ 0.762653 0.570771 0.707483 0.0
C_ C_ 0.715187 0.588822 0.710019 0.0
C_ C_ 0.706251 0.617352 0.690542 0.0
C_ C_ 0.747771 0.63051 0.671853 0.0
C_ C_ 0.794133 0.613273 0.669669 0.0
C_ C_ 0.800068 0.581574 0.685219 0.0
C_ C_ 0.814769 0.620719 0.641473 0.0
C_ C_ 0.742217 0.648598 0.645016 0.0
C_ C_ 0.830943 0.730298 0.592092 0.0
C_ C_ 0.80574 0.705623 0.611814 0.0
C_ C_ 0.804812 0.669032 0.605206 0.0
C_ C_ 0.829843 0.658066 0.579027 0.0
C_ C_ 0.853144 0.683656 0.559394 0.0
C_ C_ 0.968039 0.53623 0.667278 0.0
C_ C_ 0.998734 0.544726 0.639664 0.0
C_ C_ 0.717739 0.533773 0.636493 0.0
C_ C_ 0.746686 0.541779 0.610068 0.0
C_ C_ 0.721104 0.557109 0.585956 0.0
C_ C_ 0.00327863 0.568029 0.588977 0.0
C_ C_ 0.975938 0.56379 0.616129 0.0
C_ C_ 0.746357 0.579403 0.564863 0.0
C_ C_ 0.999445 0.596676 0.56969 0.0
C_ C_ 0.763715 0.657225 0.989051 0.0
C_ C_ 0.749875 0.62753 0.507008 0.0
C_ C_ 0.725461 0.632198 0.534798 0.0
C_ C_ 0.713699 0.666644 0.543627 0.0
C_ C_ 0.727456 0.695648 0.524758 0.0
C_ C_ 0.894653 0.710002 0.977052 0.0
C_ C_ 0.904014 0.679229 0.957483 0.0
C_ C_ 0.95148 0.661178 0.960019 0.0
C_ C_ 0.960415 0.632648 0.940542 0.0
C_ C_ 0.918896 0.61949 0.921853 0.0
C_ C_ 0.872534 0.636727 0.919669 0.0
C_ C_ 0.866599 0.668426 0.935219 0.0
C_ C_ 0.851898 0.629281 0.891473 0.0
C_ C_ 0.924449 0.601402 0.895016 0.0
C_ C_ 0.835724 0.519702 0.842092 0.0
C_ C_ 0.860926 0.544377 0.861814 0.0
C_ C_ 0.861855 0.580968 0.855206 0.0
C_ C_ 0.836823 0.591934 0.829027 0.0
C_ C_ 0.813523 0.566344 0.809394 0.0
C_ C_ 0.698628 0.71377 0.917278 0.0
C_ C_ 0.667933 0.705274 0.889664 0.0
C_ C_ 0.948927 0.716227 0.886493 0.0
C_ C_ 0.91998 0.708221 0.860068 0.0
C_ C_ 0.945562 0.692891 0.835956 0.0
C_ C_ 0.663388 0.681971 0.838977 0.0
C_ C_ 0.690729 0.68621 0.866129 0.0
C_ C_ 0.92031 0.670597 0.814863 0.0
C_ C_ 0.667221 0.653324 0.81969 0.0
C_ C_ 0.902952 0.592775 0.739051 0.0
C_ C_ 0.916792 0.62247 0.757008 0.0
C_ C_ 0.941206 0.617802 0.784798 0.0
C_ C_ 0.952968 0.583356 0.793627 0.0
C_ C_ 0.93921 0.554352 0.774758 0.0
C_ C_ 0.894653 0.960002 0.772948 0.0
C_ C_ 0.904014 0.929229 0.792517 0.0
C_ C_ 0.95148 0.911178 0.789981 0.0
C_ C_ 0.960415 0.882648 0.809458 0.0
C_ C_ 0.918896 0.86949 0.828147 0.0
C_ C_ 0.872534 0.886727 0.830331 0.0
C_ C_ 0.866599 0.918426 0.814781 0.0
C_ C_ 0.851898 0.879281 0.858527 0.0
C_ C_ 0.924449 0.851402 0.854984 0.0
C_ C_ 0.835724 0.769702 0.907908 0.0
C_ C_ 0.860926 0.794377 0.888186 0.0
C_ C_ 0.861855 0.830968 0.894794 0.0
C_ C_ 0.836823 0.841934 0.920973 0.0
C_ C_ 0.813523 0.816344 0.940606 0.0
C_ C_ 0.698628 0.96377 0.832722 0.0
C_ C_ 0.667933 0.955274 0.860336 0.0
C_ C_ 0.948927 0.966227 0.863507 0.0
C_ C_ 0.91998 0.958221 0.889932 0.0
C_ C_ 0.945562 0.942891 0.914044 0.0
C_ C_ 0.663388 0.931971 0.911023 0.0
C_ C_ 0.690729 0.93621 0.883871 0.0
C_ C_ 0.92031 0.920597 0.935137 0.0
C_ C_ 0.667221 0.903324 0.93031 0.0
C_ C_ 0.902952 0.842775 0.510949 0.0
C_ C_ 0.916792 0.87247 0.992992 0.0
C_ C_ 0.941206 0.867802 0.965202 0.0
C_ C_ 0.952968 0.833356 0.956373 0.0
C_ C_ 0.93921 0.804352 0.975242 0.0
C_ C_ 0.772014 0.789998 0.522948 0.0
C_ C_ 0.762653 0.820771 0.542517 0.0
C_ C_ 0.715187 0.838822 0.539981 0.0
C_ C_ 0.706251 0.867352 0.559458 0.0
C_ C_ 0.747771 0.88051 0.578147 0.0
C_ C_ 0.794133 0.863273 0.580331 0.0
C_ C_ 0.800068 0.831574 0.564781 0.0
C_ C_ 0.814769 0.870719 0.608527 0.0
C_ C_ 0.742217 0.898598 0.604984 0.0
C_ C_ 0.830943 0.980298 0.657908 0.0
C_ C_ 0.80574 0.955623 0.638186 0.0
C_ C_ 0.804812 0.919032 0.644794 0.0
C_ C_ 0.829843 0.908066 0.670973 0.0
C_ C_ 0.853144 0.933656 0.690606 0.0
C_ C_ 0.968039 0.78623 0.582722 0.0
C_ C_ 0.998734 0.794726 0.610336 0.0
C_ C_ 0.717739 0.783773 0.613507 0.0
C_ C_ 0.746686 0.791779 0.639932 0.0
C_ C_ 0.721104 0.807109 0.664044 0.0
C_ C_ 0.00327862 0.818029 0.661023 0.0
C_ C_ 0.975938 0.81379 0.633871 0.0
C_ C_ 0.746357 0.829403 0.685137 0.0
C_ C_ 0.999445 0.846676 0.68031 0.0
C_ C_ 0.763715 0.907225 0.760949 0.0
C_ C_ 0.749875 0.87753 0.742992 0.0
C_ C_ 0.725461 0.882198 0.715202 0.0
C_ C_ 0.713699 0.916644 0.706373 0.0
C_ C_ 0.727456 0.945648 0.725242 0.0
N_ N_ 0.852935 0.719087 0.566102 0.0
N_ N_ 0.783611 0.642872 0.626543 0.0
N_ N_ 0.711527 0.601806 0.55365 0.0
N_ N_ 0.754235 0.690701 0.4986 0.0
N_ N_ 0.813732 0.530913 0.816102 0.0
N_ N_ 0.883056 0.607128 0.876543 0.0
N_ N_ 0.95514 0.648194 0.80365 0.0
N_ N_ 0.912431 0.559299 0.7486 0.0
N_ N_ 0.813732 0.780913 0.933898 0.0
N_ N_ 0.883056 0.857128 0.873457 0.0
N_ N_ 0.95514 0.898194 0.94635 0.0
N_ N_ 0.912431 0.809299 0.00139979 0.0
N_ N_ 0.852935 0.969087 0.683898 0.0
N_ N_ 0.783611 0.892872 0.623457 0.0
N_ N_ 0.711527 0.851806 0.69635 0.0
N_ N_ 0.754235 0.940701 0.7514 0.0
O_ O_ 0.79885 0.514997 0.717173 0.0
O_ O_ 0.743984 0.534476 0.750578 0.0
O_ O_ 0.695457 0.655721 0.634274 0.0
O_ O_ 0.865986 0.620132 0.63586 0.0
O_ O_ 0.925653 0.551058 0.672831 0.0
O_ O_ 0.978891 0.510599 0.684197 0.0
O_ O_ 0.95354 0.605994 0.559287 0.0
O_ O_ 0.78749 0.569983 0.549288 0.0
O_ O_ 0.867816 0.735003 0.967173 0.0
O_ O_ 0.922682 0.715524 0.500578 0.0
O_ O_ 0.97121 0.594279 0.884274 0.0
O_ O_ 0.80068 0.629868 0.88586 0.0
O_ O_ 0.741013 0.698942 0.922831 0.0
O_ O_ 0.687776 0.739401 0.934197 0.0
O_ O_ 0.713127 0.644007 0.809287 0.0
O_ O_ 0.879177 0.680017 0.799288 0.0
O_ O_ 0.867816 0.985003 0.782827 0.0
O_ O_ 0.922682 0.965524 0.749422 0.0
O_ O_ 0.97121 0.844279 0.865726 0.0
O_ O_ 0.80068 0.879868 0.86414 0.0
O_ O_ 0.741013 0.948942 0.827169 0.0
O_ O_ 0.687776 0.989401 0.815803 0.0
O_ O_ 0.713127 0.894007 0.940713 0.0
O_ O_ 0.879177 0.930017 0.950712 0.0
O_ O_ 0.79885 0.764997 0.532827 0.0
O_ O_ 0.743984 0.784476 0.999422 0.0
O_ O_ 0.695457 0.905721 0.615726 0.0
O_ O_ 0.865986 0.870132 0.61414 0.0
O_ O_ 0.925653 0.801058 0.577169 0.0
O_ O_ 0.978891 0.760599 0.565803 0.0
O_ O_ 0.95354 0.855994 0.690713 0.0
O_ O_ 0.78749 0.819983 0.700712 0.0
