_cell_length_a 25.179
_cell_length_b 37.484199844079754
_cell_length_c 44.4702
_cell_angle_alpha 90.0
_cell_angle_beta 90.0
_cell_angle_gamma 94.03100043039683
_symmetry_space_group_name_H-M         'P 1'
_symmetry_Int_Tables_number            1
loop_
_symmetry_equiv_pos_as_xyz
   'x, y, z'
                         
loop_
_atom_site_label
_atom_site_type_symbol
_atom_site_fract_x 
_atom_site_fract_y
_atom_site_fract_z
_atom_site_charge
Cd Cd 0.231505 0.0154291 0.214309 0.0
Cd Cd 0.0983371 0.240637 0.464625 0.0
Cd Cd 0.100585 0.486569 0.283549 0.0
Cd Cd 0.230286 0.262662 0.036199 0.0
H_ H_ 0.0292851 0.0859447 0.232562 0.0
H_ H_ 0.349552 0.136811 0.197696 0.0
H_ H_ 0.170455 0.0672974 0.182488 0.0
H_ H_ 0.156981 0.263026 0.0963193 0.0
H_ H_ 0.11237 0.219791 0.13265 0.0
H_ H_ 0.16525 0.135276 0.078705 0.0
H_ H_ 0.220632 0.175477 0.0495547 0.0
H_ H_ 0.0704574 0.0220526 0.155554 0.0
H_ H_ 0.120789 0.0346067 0.108391 0.0
H_ H_ 0.266858 0.0820206 0.12233 0.0
H_ H_ 0.116073 0.158119 0.469366 0.0
H_ H_ 0.102426 0.103908 1.00302233 0.0
H_ H_ 0.0074876 0.169028 0.0570436 0.0
H_ H_ 0.0366975 0.220699 0.0255476 0.0
H_ H_ 0.307002 0.166916 0.481091 0.0
H_ H_ 0.995656 0.118286 0.442719 0.0
H_ H_ 0.163915 0.18203 0.42492 0.0
H_ H_ 0.146655 0.482462 0.353349 0.0
H_ H_ 0.191515 0.0259741 0.388871 0.0
H_ H_ 0.187683 0.112458 0.323927 0.0
H_ H_ 0.153103 0.06648 0.287323 0.0
H_ H_ 0.261038 0.229253 0.401023 0.0
H_ H_ 0.217912 0.216899 0.352672 0.0
H_ H_ 0.0577364 0.167545 0.371912 0.0
H_ H_ 0.22693 0.100766 0.21324 0.0
H_ H_ 0.251344 0.155285 0.241556 0.0
H_ H_ 0.31104 0.0853186 0.309105 0.0
H_ H_ 0.286169 0.0348551 0.278323 0.0
H_ H_ 0.297078 0.414742 0.264942 0.0
H_ H_ 0.990475 0.36513 0.303753 0.0
H_ H_ 0.169458 0.44143 0.322638 0.0
H_ H_ 0.140899 0.326631 0.456489 0.0
H_ H_ 0.174829 0.366778 0.4158 0.0
H_ H_ 0.19355 0.277665 0.360448 0.0
H_ H_ 0.150215 0.237997 0.400317 0.0
H_ H_ 0.27201 0.484014 0.350703 0.0
H_ H_ 0.228027 0.473423 0.402227 0.0
H_ H_ 0.0580907 0.420528 0.379246 0.0
H_ H_ 0.225624 0.345778 0.0284932 0.0
H_ H_ 0.267241 0.402517 0.507221 0.0
H_ H_ 0.285163 0.332674 0.433171 0.0
H_ H_ 0.266998 0.281331 0.464898 0.0
H_ H_ 0.0196613 0.336819 0.0208728 0.0
H_ H_ 0.337156 0.37768 0.0592303 0.0
H_ H_ 0.174745 0.325288 0.0618637 0.0
H_ H_ 0.178358 0.0139307 0.146049 0.0
H_ H_ 0.169115 0.464924 0.106363 0.0
H_ H_ 0.148889 0.386714 0.176091 0.0
H_ H_ 0.190136 0.432367 0.210732 0.0
H_ H_ 0.0672812 0.268881 0.0972177 0.0
H_ H_ 0.121485 0.288812 0.140785 0.0
H_ H_ 0.281372 0.339007 0.123358 0.0
H_ H_ 0.13647 0.40521 0.275808 0.0
H_ H_ 0.100608 0.351535 0.248366 0.0
H_ H_ 0.0218318 0.417054 0.184985 0.0
H_ H_ 0.0410958 0.469619 0.218994 0.0
C_ C_ 0.108732 0.0410497 0.228277 0.0
C_ C_ 0.0983314 0.0714081 0.208677 0.0
C_ C_ 0.0503985 0.0896779 0.211627 0.0
C_ C_ 0.0385271 0.114808 0.189902 0.0
C_ C_ 0.0692471 0.117499 0.164286 0.0
C_ C_ 0.117777 0.101191 0.162676 0.0
C_ C_ 0.134741 0.0798188 0.185423 0.0
C_ C_ 0.149262 0.121705 0.141951 0.0
C_ C_ 0.0728077 0.145969 0.143871 0.0
C_ C_ 0.159434 0.233979 0.0919652 0.0
C_ C_ 0.13395 0.208701 0.112991 0.0
C_ C_ 0.138048 0.173652 0.108938 0.0
C_ C_ 0.163529 0.162268 0.0829219 0.0
C_ C_ 0.189514 0.185738 0.0636731 0.0
C_ C_ 0.302679 0.0405786 0.167456 0.0
C_ C_ 0.328795 0.0478703 0.137728 0.0
C_ C_ 0.0501172 0.0337421 0.136439 0.0
C_ C_ 0.0792328 0.044244 0.110379 0.0
C_ C_ 0.053422 0.0575309 0.0863241 0.0
C_ C_ 0.322907 0.0711716 0.0859475 0.0
C_ C_ 0.30096 0.0672316 0.115384 0.0
C_ C_ 0.0789747 0.0797185 0.0648749 0.0
C_ C_ 0.323491 0.102637 0.0699299 0.0
C_ C_ 0.0959585 0.160349 0.490641 0.0
C_ C_ 0.0897377 0.130182 0.00905783 0.0
C_ C_ 0.056811 0.133152 0.0336748 0.0
C_ C_ 0.0387919 0.165963 0.0401997 0.0
C_ C_ 0.049994 0.196103 0.0203787 0.0
C_ C_ 0.223025 0.209608 0.476296 0.0
C_ C_ 0.232536 0.177312 0.458278 0.0
C_ C_ 0.277295 0.157898 0.463347 0.0
C_ C_ 0.285596 0.127316 0.446376 0.0
C_ C_ 0.246026 0.114153 0.426348 0.0
C_ C_ 0.2061 0.134455 0.418814 0.0
C_ C_ 0.19758 0.166641 0.433836 0.0
C_ C_ 0.189593 0.124785 0.391063 0.0
C_ C_ 0.254911 0.0912217 0.402827 0.0
C_ C_ 0.165802 0.0131194 0.344865 0.0
C_ C_ 0.187926 0.0354669 0.365946 0.0
C_ C_ 0.202187 0.0721694 0.358269 0.0
C_ C_ 0.187402 0.0842979 0.329295 0.0
C_ C_ 0.16317 0.0601848 0.308917 0.0
C_ C_ 0.0303821 0.215555 0.414884 0.0
C_ C_ -0.00017900000000004024 0.205603 0.38881 0.0
C_ C_ 0.283179 0.217288 0.383013 0.0
C_ C_ 0.257047 0.209464 0.356119 0.0
C_ C_ 0.285644 0.197869 0.331925 0.0
C_ C_ 0.996489 0.181315 0.338498 0.0
C_ C_ 0.0215449 0.184242 0.366502 0.0
C_ C_ 0.263083 0.17554 0.310228 0.0
C_ C_ 0.000876125 0.154215 0.319526 0.0
C_ C_ 0.240703 0.0982911 0.235272 0.0
C_ C_ 0.254642 0.127976 0.252547 0.0
C_ C_ 0.28497 0.12406 0.278917 0.0
C_ C_ 0.295688 0.0902745 0.287401 0.0
C_ C_ 0.276929 0.0606967 0.272022 0.0
C_ C_ 0.224779 0.462613 0.271538 0.0
C_ C_ 0.231255 0.430992 0.291482 0.0
C_ C_ 0.274428 0.407503 0.284726 0.0
C_ C_ 0.29226 0.384707 0.306215 0.0
C_ C_ 0.263451 0.381576 0.333501 0.0
C_ C_ 0.221283 0.402216 0.339734 0.0
C_ C_ 0.204337 0.427268 0.318657 0.0
C_ C_ 0.187016 0.381635 0.358386 0.0
C_ C_ 0.254081 0.349653 0.348105 0.0
C_ C_ 0.148858 0.316526 0.435507 0.0
C_ C_ 0.175154 0.339323 0.413646 0.0
C_ C_ 0.191918 0.325696 0.386956 0.0
C_ C_ 0.183441 0.288398 0.382552 0.0
C_ C_ 0.157016 0.266399 0.404346 0.0
C_ C_ 0.0315308 0.463114 0.333169 0.0
C_ C_ 0.00156389 0.454912 0.360757 0.0
C_ C_ 0.291788 0.469643 0.369042 0.0
C_ C_ 0.26774 0.464126 0.396837 0.0
C_ C_ 0.293132 0.446639 0.418643 0.0
C_ C_ 0.997206 0.432163 0.410878 0.0
C_ C_ 0.0246311 0.436792 0.384075 0.0
C_ C_ 0.269201 0.429167 0.442864 0.0
C_ C_ 0.000869209 0.403486 0.430788 0.0
C_ C_ 0.241079 0.340716 0.00689508 0.0
C_ C_ 0.266389 0.376142 0.498326 0.0
C_ C_ 0.276551 0.370812 0.468392 0.0
C_ C_ 0.277236 0.335723 0.457155 0.0
C_ C_ 0.264496 0.306675 0.474566 0.0
C_ C_ 0.109471 0.293064 0.0225552 0.0
C_ C_ 0.0992961 0.32481 0.040303 0.0
C_ C_ 0.0491117 0.341318 0.0392267 0.0
C_ C_ 0.0385578 0.366594 0.0605597 0.0
C_ C_ 0.0705099 0.368687 0.0864974 0.0
C_ C_ 0.118886 0.352572 0.0879453 0.0
C_ C_ 0.136637 0.334931 0.0624887 0.0
C_ C_ 0.15122 0.372623 0.106687 0.0
C_ C_ 0.0770279 0.398611 0.10412 0.0
C_ C_ 0.187298 0.483695 0.14966 0.0
C_ C_ 0.167375 0.458861 0.129047 0.0
C_ C_ 0.145766 0.424955 0.139255 0.0
C_ C_ 0.153905 0.414849 0.169525 0.0
C_ C_ 0.175572 0.440686 0.18959 0.0
C_ C_ 0.301384 0.287252 0.0840869 0.0
C_ C_ 0.332041 0.296801 0.110271 0.0
C_ C_ 0.0508046 0.28353 0.113955 0.0
C_ C_ 0.0794124 0.290279 0.141254 0.0
C_ C_ 0.0541058 0.307502 0.165482 0.0
C_ C_ 0.335465 0.322586 0.158713 0.0
C_ C_ 0.31474 0.322346 0.129755 0.0
C_ C_ 0.078848 0.327301 0.187837 0.0
C_ C_ 0.330165 0.349822 0.178184 0.0
C_ C_ 0.103134 0.407504 0.257973 0.0
C_ C_ 0.086027 0.377993 0.243596 0.0
C_ C_ 0.0571766 0.381101 0.215782 0.0
C_ C_ 0.0443183 0.415569 0.205815 0.0
C_ C_ 0.0513226 0.443175 0.225947 0.0
N_ N_ 0.182907 0.222508 0.0669028 0.0
N_ N_ 0.119545 0.148012 0.129996 0.0
N_ N_ 0.0449951 0.101839 0.0530967 0.0
N_ N_ 0.0855273 0.192696 0.997945 0.0
N_ N_ 0.151343 0.0249803 0.317878 0.0
N_ N_ 0.218048 0.0975405 0.381356 0.0
N_ N_ 0.299458 0.15404 0.298723 0.0
N_ N_ 0.250255 0.0641563 0.245727 0.0
N_ N_ 0.141607 0.280395 0.430022 0.0
N_ N_ 0.206661 0.349807 0.362091 0.0
N_ N_ 0.298942 0.401692 0.451814 0.0
N_ N_ 0.244897 0.311939 0.502844 0.0
N_ N_ 0.186355 0.476024 0.180131 0.0
N_ N_ 0.125527 0.400539 0.116837 0.0
N_ N_ 0.0452181 0.351157 0.197468 0.0
N_ N_ 0.0846414 0.439014 0.250222 0.0
O_ O_ 0.136273 0.0167559 0.218113 0.0
O_ O_ 0.0808237 0.0347951 0.251236 0.0
O_ O_ 0.0413615 0.174194 0.145378 0.0
O_ O_ 0.201706 0.127858 0.145158 0.0
O_ O_ 0.25838 0.0539562 0.173358 0.0
O_ O_ 0.313165 0.0152014 0.182984 0.0
O_ O_ 0.280867 0.11564 0.0612048 0.0
O_ O_ 0.126004 0.074016 0.0519929 0.0
O_ O_ 0.197842 0.233535 0.464853 0.0
O_ O_ 0.251742 0.21143 0.00294773 0.0
O_ O_ 0.300305 0.0779426 0.397759 0.0
O_ O_ 0.138692 0.125944 0.384445 0.0
O_ O_ 0.069487 0.196833 0.422267 0.0
O_ O_ 0.0199954 0.24186 0.432314 0.0
O_ O_ 0.046214 0.144697 0.309575 0.0
O_ O_ 0.21994 0.182249 0.295739 0.0
O_ O_ 0.198892 0.488672 0.280402 0.0
O_ O_ 0.250409 0.466797 0.247039 0.0
O_ O_ 0.293385 0.33065 0.358129 0.0
O_ O_ 0.136644 0.38477 0.356271 0.0
O_ O_ 0.0686936 0.444737 0.324211 0.0
O_ O_ 0.0242209 0.490089 0.317396 0.0
O_ O_ 0.0469232 0.397581 0.444255 0.0
O_ O_ 0.219691 0.431719 0.449595 0.0
O_ O_ 0.134214 0.267409 0.0328609 0.0
O_ O_ 0.0763304 0.28395 0.49829 0.0
O_ O_ 0.0406445 0.420965 0.110902 0.0
O_ O_ 0.204919 0.372508 0.105476 0.0
O_ O_ 0.265345 0.306023 0.0754734 0.0
O_ O_ 0.313819 0.262957 0.0659306 0.0
O_ O_ 0.283837 0.362109 0.183256 0.0
O_ O_ 0.115249 0.313827 0.204511 0.0
Cd Cd 0.231536 0.0110378 0.714189 0.0
Cd Cd 0.104759 0.239595 0.965144 0.0
Cd Cd 0.101573 0.488742 0.784597 0.0
Cd Cd 0.226809 0.26181 0.533365 0.0
H_ H_ 0.0181847 0.0805129 0.727102 0.0
H_ H_ 0.441675 0.163576 0.726512 0.0
H_ H_ 0.163131 0.062646 0.677692 0.0
H_ H_ 0.169415 0.2593 0.598629 0.0
H_ H_ 0.13077 0.211033 0.63624 0.0
H_ H_ 0.181896 0.132163 0.576345 0.0
H_ H_ 0.200454 0.175935 0.537923 0.0
H_ H_ 0.069785 0.0220773 0.656085 0.0
H_ H_ 0.122675 0.0350942 0.608752 0.0
H_ H_ 0.288596 0.0942156 0.629754 0.0
H_ H_ 0.127601 0.155228 0.971577 0.0
H_ H_ 0.0865584 0.103627 0.499129 0.0
H_ H_ 0.0319787 0.172574 0.56831 0.0
H_ H_ 0.0413257 0.221716 0.530081 0.0
H_ H_ 0.277665 0.147003 0.995795 0.0
H_ H_ 0.997705 0.119143 0.941988 0.0
H_ H_ 0.199498 0.192178 0.920987 0.0
H_ H_ 0.162387 0.495744 0.849069 0.0
H_ H_ 0.172137 0.0271978 0.894366 0.0
H_ H_ 0.216308 0.105161 0.827103 0.0
H_ H_ 0.167473 0.0706417 0.788061 0.0
H_ H_ 0.269794 0.234418 0.89248 0.0
H_ H_ 0.237796 0.228746 0.840028 0.0
H_ H_ 0.0639141 0.177343 0.868626 0.0
H_ H_ 0.222724 0.0984003 0.714447 0.0
H_ H_ 0.258056 0.152899 0.743689 0.0
H_ H_ 0.345999 0.0837441 0.797186 0.0
H_ H_ 0.308537 0.0341404 0.768 0.0
H_ H_ 0.21519 0.395775 0.744049 0.0
H_ H_ 0.0011399999999999189 0.375142 0.813372 0.0
H_ H_ 0.219673 0.45051 0.828401 0.0
H_ H_ 0.0662659 0.313848 0.935437 0.0
H_ H_ 0.0900931 0.356523 0.893717 0.0
H_ H_ 0.228801 0.301301 0.881122 0.0
H_ H_ 0.206394 0.261112 0.922392 0.0
H_ H_ 0.276161 0.488009 0.851616 0.0
H_ H_ 0.218579 0.464556 0.895117 0.0
H_ H_ 0.0655588 0.428895 0.881021 0.0
H_ H_ 0.237169 0.348982 0.53789 0.0
H_ H_ 0.253108 0.395533 0.994848 0.0
H_ H_ 0.300142 0.318781 0.9301 0.0
H_ H_ 0.276937 0.269939 0.969309 0.0
H_ H_ 0.0190085 0.32778 0.525496 0.0
H_ H_ 0.447989 0.414556 0.517136 0.0
H_ H_ 0.173313 0.319369 0.562006 0.0
H_ H_ 0.158485 0.0101153 0.653513 0.0
H_ H_ 0.115748 0.46635 0.61603 0.0
H_ H_ 0.186021 0.383694 0.666668 0.0
H_ H_ 0.222879 0.428854 0.701997 0.0
H_ H_ 0.0668713 0.271038 0.593828 0.0
H_ H_ 0.122724 0.290195 0.639541 0.0
H_ H_ 0.309594 0.351053 0.611493 0.0
H_ H_ 0.0989257 0.405321 0.785114 0.0
H_ H_ 0.0568464 0.353037 0.756321 0.0
H_ H_ 0.0312327 0.419438 0.682064 0.0
H_ H_ 0.0587555 0.471457 0.716565 0.0
C_ C_ 0.107228 0.0446098 0.731212 0.0
C_ C_ 0.0987795 0.0741954 0.710636 0.0
C_ C_ 0.0485304 0.0897212 0.711905 0.0
C_ C_ 0.0377593 0.115169 0.690562 0.0
C_ C_ 0.0810068 0.127435 0.670923 0.0
C_ C_ 0.128084 0.110876 0.667782 0.0
C_ C_ 0.135943 0.0819092 0.68655 0.0
C_ C_ 0.147945 0.118308 0.640128 0.0
C_ C_ 0.0756933 0.146857 0.644301 0.0
C_ C_ 0.16606 0.230362 0.592454 0.0
C_ C_ 0.141927 0.20483 0.613179 0.0
C_ C_ 0.141117 0.168226 0.60528 0.0
C_ C_ 0.167368 0.15838 0.579537 0.0
C_ C_ 0.184858 0.184396 0.559145 0.0
C_ C_ 0.300205 0.0359814 0.666369 0.0
C_ C_ 0.326832 0.0438961 0.637414 0.0
C_ C_ 0.0512068 0.0327325 0.636979 0.0
C_ C_ 0.0801965 0.038788 0.608735 0.0
C_ C_ 0.0555678 0.0579119 0.58539 0.0
C_ C_ 0.321007 0.0716898 0.5887 0.0
C_ C_ 0.308943 0.0714531 0.619281 0.0
C_ C_ 0.0789194 0.0796073 0.56346 0.0
C_ C_ 0.324876 0.103659 0.57213 0.0
C_ C_ 0.104566 0.160099 0.99175 0.0
C_ C_ 0.0803675 0.129738 0.507167 0.0
C_ C_ 0.0561983 0.134156 0.535023 0.0
C_ C_ 0.0431092 0.168084 0.545174 0.0
C_ C_ 0.0532042 0.196602 0.524436 0.0
C_ C_ 0.223913 0.205121 0.9796 0.0
C_ C_ 0.233964 0.173469 0.961277 0.0
C_ C_ 0.265124 0.146938 0.972288 0.0
C_ C_ 0.276856 0.117732 0.953669 0.0
C_ C_ 0.265834 0.117782 0.923568 0.0
C_ C_ 0.235066 0.144402 0.912665 0.0
C_ C_ 0.219128 0.171399 0.930826 0.0
C_ C_ 0.204825 0.128838 0.889326 0.0
C_ C_ 0.252807 0.0870629 0.907026 0.0
C_ C_ 0.14715 0.0153267 0.848668 0.0
C_ C_ 0.169904 0.0366383 0.870957 0.0
C_ C_ 0.193623 0.0700348 0.862801 0.0
C_ C_ 0.189859 0.0831112 0.833721 0.0
C_ C_ 0.16556 0.0614326 0.811577 0.0
C_ C_ 0.0321604 0.210743 0.917549 0.0
C_ C_ 7.84944e-05 0.203849 0.889534 0.0
C_ C_ 0.294384 0.221186 0.876454 0.0
C_ C_ 0.276373 0.218392 0.846388 0.0
C_ C_ 0.30597 0.199453 0.825092 0.0
C_ C_ 0.997015 0.182997 0.838861 0.0
C_ C_ 0.0240103 0.185906 0.866602 0.0
C_ C_ 0.285196 0.182196 0.800283 0.0
C_ C_ 0.00157224 0.154699 0.818895 0.0
C_ C_ 0.238612 0.0948555 0.736521 0.0
C_ C_ 0.259504 0.126007 0.753433 0.0
C_ C_ 0.295901 0.122379 0.775961 0.0
C_ C_ 0.311793 0.0872602 0.783045 0.0
C_ C_ 0.291951 0.05848 0.766203 0.0
C_ C_ 0.228382 0.464471 0.76908 0.0
C_ C_ 0.225872 0.429483 0.785001 0.0
C_ C_ 0.223472 0.396587 0.76798 0.0
C_ C_ 0.213482 0.364173 0.782293 0.0
C_ C_ 0.215613 0.362019 0.813916 0.0
C_ C_ 0.21543 0.393523 0.830733 0.0
C_ C_ 0.21973 0.427498 0.816097 0.0
C_ C_ 0.18693 0.384991 0.855953 0.0
C_ C_ 0.186033 0.336264 0.830048 0.0
C_ C_ 0.10441 0.313431 0.925707 0.0
C_ C_ 0.115453 0.334658 0.900459 0.0
C_ C_ 0.16112 0.33077 0.883854 0.0
C_ C_ 0.196975 0.305592 0.892485 0.0
C_ C_ 0.181301 0.283037 0.916031 0.0
C_ C_ 0.0318419 0.464164 0.833426 0.0
C_ C_ 1.00248271 0.456427 0.861076 0.0
C_ C_ 0.289646 0.469105 0.866874 0.0
C_ C_ 0.259597 0.456271 0.891578 0.0
C_ C_ 0.283013 0.435777 0.912149 0.0
C_ C_ 0.994905 0.429883 0.909609 0.0
C_ C_ 0.0237223 0.43483 0.883106 0.0
C_ C_ 0.256199 0.411199 0.930066 0.0
C_ C_ -0.0013499999999999623 0.402376 0.929449 0.0
C_ C_ 0.2455 0.346507 0.515284 0.0
C_ C_ 0.256858 0.368373 0.987339 0.0
C_ C_ 0.279695 0.359271 0.959566 0.0
C_ C_ 0.29294 0.324387 0.954525 0.0
C_ C_ 0.275448 0.297127 0.974425 0.0
C_ C_ 0.106317 0.290039 0.520459 0.0
C_ C_ 0.0950622 0.319283 0.541662 0.0
C_ C_ 0.0462037 0.333712 0.542509 0.0
C_ C_ 0.0373606 0.362779 0.561373 0.0
C_ C_ 0.0790882 0.378469 0.577502 0.0
C_ C_ 0.129174 0.365118 0.576217 0.0
C_ C_ 0.135959 0.332768 0.56142 0.0
C_ C_ 0.154198 0.375664 0.602826 0.0
C_ C_ 0.0779358 0.400353 0.601994 0.0
C_ C_ 0.161523 0.482941 0.656335 0.0
C_ C_ 0.134657 0.45847 0.63669 0.0
C_ C_ 0.145116 0.422238 0.639246 0.0
C_ C_ 0.175075 0.410943 0.664462 0.0
C_ C_ 0.198577 0.436854 0.682814 0.0
C_ C_ 0.30417 0.286354 0.578566 0.0
C_ C_ 0.335445 0.29562 0.606387 0.0
C_ C_ 0.0521804 0.285801 0.612515 0.0
C_ C_ 0.081441 0.294305 0.638565 0.0
C_ C_ 0.0554227 0.307876 0.663473 0.0
C_ C_ 0.370184 0.340022 0.642709 0.0
C_ C_ 0.33559 0.330133 0.619827 0.0
C_ C_ 0.0789594 0.328545 0.684899 0.0
C_ C_ 0.357838 0.363931 0.665313 0.0
C_ C_ 0.0889448 0.408392 0.762009 0.0
C_ C_ 0.0687796 0.378143 0.74557 0.0
C_ C_ 0.0586065 0.382216 0.714376 0.0
C_ C_ 0.0528935 0.415779 0.704071 0.0
C_ C_ 0.0688991 0.445594 0.722 0.0
N_ N_ 0.187405 0.219787 0.566209 0.0
N_ N_ 0.118292 0.142474 0.626264 0.0
N_ N_ 0.0431561 0.101782 0.552949 0.0
N_ N_ 0.079679 0.192247 0.498489 0.0
N_ N_ 0.14502 0.0274417 0.820336 0.0
N_ N_ 0.216077 0.0938997 0.885759 0.0
N_ N_ 0.315726 0.154053 0.793437 0.0
N_ N_ 0.255182 0.0622699 0.743711 0.0
N_ N_ 0.13393 0.285745 0.931426 0.0
N_ N_ 0.169382 0.350636 0.856684 0.0
N_ N_ 0.288183 0.38504 0.936584 0.0
N_ N_ 0.248957 0.305974 -0.0005100000000000104 0.0
N_ N_ 0.186916 0.471594 0.680629 0.0
N_ N_ 0.123424 0.396614 0.617798 0.0
N_ N_ 0.0446462 0.350754 0.695924 0.0
N_ N_ 0.0907347 0.441191 0.749963 0.0
O_ O_ 0.139008 0.0194631 0.724147 0.0
O_ O_ 0.0737257 0.0377301 0.752267 0.0
O_ O_ 0.0294654 0.152373 0.63253 0.0
O_ O_ 0.190807 0.106384 0.629404 0.0
O_ O_ 0.260338 0.0525366 0.674454 0.0
O_ O_ 0.309934 0.00793183 0.682153 0.0
O_ O_ 0.296787 0.132012 0.578526 0.0
O_ O_ 0.116972 0.0695435 0.545994 0.0
O_ O_ 0.199531 0.231067 0.969211 0.0
O_ O_ 0.252732 0.217262 0.498921 0.0
O_ O_ 0.264602 0.0547319 0.914852 0.0
O_ O_ 0.1594 0.139685 0.880825 0.0
O_ O_ 0.0788026 0.202634 0.918933 0.0
O_ O_ 0.0182868 0.23048 0.93808 0.0
O_ O_ 0.041758 0.134111 0.818261 0.0
O_ O_ 0.235572 0.183354 0.791952 0.0
O_ O_ 0.197011 0.487795 0.775241 0.0
O_ O_ 0.26154 0.469585 0.748325 0.0
O_ O_ 0.160195 0.308958 0.818465 0.0
O_ O_ 0.161354 0.40812 0.872027 0.0
O_ O_ 0.0793084 0.452815 0.829326 0.0
O_ O_ 0.0169639 0.486572 0.814045 0.0
O_ O_ 0.0439083 0.391209 0.939048 0.0
O_ O_ 0.204281 0.408012 0.931253 0.0
O_ O_ 0.131307 0.265025 0.531328 0.0
O_ O_ 0.0833093 0.288081 0.998333 0.0
O_ O_ 0.0351182 0.408855 0.615358 0.0
O_ O_ 0.205978 0.379116 0.605429 0.0
O_ O_ 0.264103 0.302338 0.57268 0.0
O_ O_ 0.309421 0.257783 0.563918 0.0
O_ O_ 0.318384 0.384972 0.663224 0.0
O_ O_ 0.129305 0.333187 0.689697 0.0
Cd Cd 0.226545 0.515844 0.213663 0.0
Cd Cd 0.102936 0.740052 0.465054 0.0
Cd Cd 0.107419 0.989592 0.28441 0.0
Cd Cd 0.233783 0.763577 0.0351276 0.0
H_ H_ 0.0179328 0.582048 0.225152 0.0
H_ H_ 0.332599 0.625541 0.186665 0.0
H_ H_ 0.159677 0.559023 0.175337 0.0
H_ H_ 0.17273 0.761205 0.0997529 0.0
H_ H_ 0.116337 0.718168 0.130591 0.0
H_ H_ 0.173808 0.633865 0.0740574 0.0
H_ H_ 0.204061 0.679574 0.0407197 0.0
H_ H_ 0.0706572 0.520852 0.153416 0.0
H_ H_ 0.12295 0.539584 0.105976 0.0
H_ H_ 0.267626 0.571001 0.116211 0.0
H_ H_ 0.109347 0.655525 0.467241 0.0
H_ H_ 0.0653517 0.60266 0.992207 0.0
H_ H_ 0.0401761 0.671996 0.0662115 0.0
H_ H_ 0.0505926 0.723075 0.0284952 0.0
H_ H_ 0.313993 0.668688 0.477986 0.0
H_ H_ 0.992695 0.615461 0.445664 0.0
H_ H_ 0.168245 0.688476 0.43357 0.0
H_ H_ 0.157687 0.983834 0.350519 0.0
H_ H_ 0.183281 0.523679 0.393132 0.0
H_ H_ 0.173867 0.61036 0.334116 0.0
H_ H_ 0.145839 0.568103 0.29303 0.0
H_ H_ 0.265157 0.730062 0.404245 0.0
H_ H_ 0.214152 0.718501 0.354954 0.0
H_ H_ 0.0540121 0.668716 0.370929 0.0
H_ H_ 0.208572 0.599165 0.218547 0.0
H_ H_ 0.234266 0.649343 0.249746 0.0
H_ H_ 0.315609 0.579522 0.30722 0.0
H_ H_ 0.278797 0.530399 0.27843 0.0
H_ H_ 0.303709 0.910884 0.26264 0.0
H_ H_ 0.994554 0.867233 0.306084 0.0
H_ H_ 0.169056 0.93764 0.31318 0.0
H_ H_ 0.151967 0.735749 0.396816 0.0
H_ H_ 0.167566 0.779095 0.352559 0.0
H_ H_ 0.150238 0.86519 0.410928 0.0
H_ H_ 0.126656 0.825471 0.45284 0.0
H_ H_ 0.268692 0.987764 0.349826 0.0
H_ H_ 0.213735 0.969012 0.396856 0.0
H_ H_ 0.0577111 0.918675 0.378362 0.0
H_ H_ 0.219971 0.843694 0.0331638 0.0
H_ H_ 0.254665 0.899825 0.501339 0.0
H_ H_ 0.309598 0.830073 0.437573 0.0
H_ H_ 0.285769 0.779446 0.472248 0.0
H_ H_ 0.0306071 0.833721 0.0189122 0.0
H_ H_ 0.333093 0.877895 0.0612303 0.0
H_ H_ 0.167844 0.814423 0.0697621 0.0
H_ H_ 0.206617 0.507495 0.141871 0.0
H_ H_ 0.135151 0.972225 0.109993 0.0
H_ H_ 0.169252 0.885395 0.166539 0.0
H_ H_ 0.219862 0.927691 0.200783 0.0
H_ H_ 0.062761 0.764353 0.0989377 0.0
H_ H_ 0.119747 0.784729 0.14177 0.0
H_ H_ 0.275396 0.83162 0.13005 0.0
H_ H_ 0.115565 0.903491 0.281277 0.0
H_ H_ 0.0956779 0.851209 0.248378 0.0
H_ H_ 0.024919 0.921841 0.185418 0.0
H_ H_ 0.0562646 0.973342 0.216922 0.0
C_ C_ 0.097205 0.537619 0.222569 0.0
C_ C_ 0.0873524 0.565733 0.202691 0.0
C_ C_ 0.0470049 0.587422 0.208024 0.0
C_ C_ 0.0394082 0.617035 0.189308 0.0
C_ C_ 0.0806279 0.627959 0.169851 0.0
C_ C_ 0.124023 0.609684 0.166344 0.0
C_ C_ 0.128817 0.576051 0.181548 0.0
C_ C_ 0.144496 0.619247 0.138456 0.0
C_ C_ 0.0774245 0.650495 0.146392 0.0
C_ C_ 0.171184 0.732411 0.0954222 0.0
C_ C_ 0.138872 0.707941 0.111809 0.0
C_ C_ 0.140359 0.67134 0.105278 0.0
C_ C_ 0.163926 0.661326 0.0779331 0.0
C_ C_ 0.192201 0.687241 0.0611077 0.0
C_ C_ 0.30249 0.541554 0.169763 0.0
C_ C_ 0.330231 0.545301 0.139595 0.0
C_ C_ 0.0508213 0.533779 0.134892 0.0
C_ C_ 0.0808849 0.543015 0.108184 0.0
C_ C_ 0.054976 0.558624 0.0848957 0.0
C_ C_ 0.334471 0.567634 0.0882062 0.0
C_ C_ 0.305923 0.562567 0.115343 0.0
C_ C_ 0.079725 0.581609 0.0644598 0.0
C_ C_ 0.332866 0.597183 0.068927 0.0
C_ C_ 0.0976325 0.659042 0.49004 0.0
C_ C_ 0.0735617 0.628425 0.00389894 0.0
C_ C_ 0.0582069 0.633209 0.0339229 0.0
C_ C_ 0.0521707 0.6684 0.0438261 0.0
C_ C_ 0.0639954 0.697113 0.0239105 0.0
C_ C_ 0.230751 0.711805 0.478271 0.0
C_ C_ 0.239594 0.679816 0.459236 0.0
C_ C_ 0.283331 0.659011 0.463463 0.0
C_ C_ 0.292867 0.630908 0.442989 0.0
C_ C_ 0.258989 0.625603 0.416643 0.0
C_ C_ 0.215759 0.646989 0.411814 0.0
C_ C_ 0.203609 0.672954 0.4346 0.0
C_ C_ 0.178021 0.625779 0.394858 0.0
C_ C_ 0.244128 0.59344 0.404081 0.0
C_ C_ 0.155644 0.509876 0.348158 0.0
C_ C_ 0.16897 0.533637 0.371918 0.0
C_ C_ 0.178195 0.569939 0.366687 0.0
C_ C_ 0.165348 0.582874 0.337724 0.0
C_ C_ 0.151326 0.55922 0.314581 0.0
C_ C_ 0.0298062 0.713783 0.418252 0.0
C_ C_ -0.0005859999999999754 0.703233 0.390163 0.0
C_ C_ 0.283845 0.718454 0.385275 0.0
C_ C_ 0.25546 0.711068 0.357862 0.0
C_ C_ 0.280433 0.694377 0.334734 0.0
C_ C_ 0.998133 0.682691 0.338602 0.0
C_ C_ 0.0209636 0.683546 0.366976 0.0
C_ C_ 0.255605 0.673621 0.312425 0.0
C_ C_ 0.00110274 0.653641 0.318502 0.0
C_ C_ 0.222507 0.594836 0.241116 0.0
C_ C_ 0.245095 0.624789 0.256645 0.0
C_ C_ 0.273667 0.620143 0.282766 0.0
C_ C_ 0.287525 0.584543 0.289317 0.0
C_ C_ 0.26374 0.556085 0.273748 0.0
C_ C_ 0.233949 0.964975 0.268333 0.0
C_ C_ 0.240167 0.932965 0.288329 0.0
C_ C_ 0.281498 0.909991 0.282819 0.0
C_ C_ 0.291222 0.883898 0.304033 0.0
C_ C_ 0.261539 0.880604 0.330962 0.0
C_ C_ 0.217595 0.901145 0.335102 0.0
C_ C_ 0.205207 0.926205 0.312921 0.0
C_ C_ 0.178718 0.879942 0.351457 0.0
C_ C_ 0.246275 0.846922 0.345983 0.0
C_ C_ 0.154658 0.765137 0.400715 0.0
C_ C_ 0.168255 0.787953 0.375775 0.0
C_ C_ 0.175537 0.824009 0.380771 0.0
C_ C_ 0.159801 0.83735 0.408366 0.0
C_ C_ 0.141323 0.814891 0.431748 0.0
C_ C_ 0.0292408 0.962083 0.330959 0.0
C_ C_ -0.00014199999999997548 0.953332 0.359472 0.0
C_ C_ 0.283841 0.969258 0.364993 0.0
C_ C_ 0.255057 0.961053 0.392497 0.0
C_ C_ 0.279402 0.942993 0.41448 0.0
C_ C_ 0.995519 0.930734 0.411019 0.0
C_ C_ 0.0212181 0.931608 0.382605 0.0
C_ C_ 0.253823 0.920913 0.435006 0.0
C_ C_ 1.0000643876 0.90316 0.430442 0.0
C_ C_ 0.238845 0.840998 0.0114432 0.0
C_ C_ 0.248767 0.872973 0.493305 0.0
C_ C_ 0.272757 0.866883 0.464838 0.0
C_ C_ 0.286449 0.832529 0.457975 0.0
C_ C_ 0.270043 0.804037 0.476318 0.0
C_ C_ 0.109551 0.791353 0.0221869 0.0
C_ C_ 0.0969063 0.818195 0.0446212 0.0
C_ C_ 0.0509496 0.83689 0.0403306 0.0
C_ C_ 0.0338199 0.861188 0.0628947 0.0
C_ C_ 0.0664763 0.865981 0.0886069 0.0
C_ C_ 0.112418 0.848219 0.0921623 0.0
C_ C_ 0.127266 0.824583 0.0705183 0.0
C_ C_ 0.147107 0.869058 0.110565 0.0
C_ C_ 0.0758145 0.898935 0.102949 0.0
C_ C_ 0.17366 0.986602 0.152106 0.0
C_ C_ 0.147428 0.963284 0.13221 0.0
C_ C_ 0.146953 0.925779 0.136945 0.0
C_ C_ 0.168504 0.914464 0.163711 0.0
C_ C_ 0.195092 0.937938 0.183504 0.0
C_ C_ 0.305094 0.791303 0.0809867 0.0
C_ C_ 0.334777 0.798499 0.10949 0.0
C_ C_ 0.0475653 0.779851 0.115286 0.0
C_ C_ 0.0770928 0.786677 0.141808 0.0
C_ C_ 0.0543332 0.805552 0.164732 0.0
C_ C_ 0.336906 0.818052 0.161199 0.0
C_ C_ 0.309083 0.814688 0.134011 0.0
C_ C_ 0.07961 0.829914 0.184296 0.0
C_ C_ 0.333088 0.847111 0.18058 0.0
C_ C_ 0.0984296 0.906872 0.260721 0.0
C_ C_ 0.085891 0.87732 0.242018 0.0
C_ C_ 0.0568774 0.882384 0.215178 0.0
C_ C_ 0.0474762 0.917094 0.206012 0.0
C_ C_ 0.0683192 0.94689 0.223322 0.0
N_ N_ 0.194084 0.721677 0.0689925 0.0
N_ N_ 0.115082 0.644724 0.124868 0.0
N_ N_ 0.0444835 0.602497 0.0528936 0.0
N_ N_ 0.0869406 0.691967 0.996823 0.0
N_ N_ 0.147102 0.523378 0.320235 0.0
N_ N_ 0.195656 0.593371 0.39053 0.0
N_ N_ 0.28954 0.650044 0.302249 0.0
N_ N_ 0.234623 0.56075 0.24865 0.0
N_ N_ 0.139879 0.779098 0.428657 0.0
N_ N_ 0.197568 0.847903 0.358545 0.0
N_ N_ 0.28686 0.896657 0.445636 0.0
N_ N_ 0.241509 0.808399 0.501995 0.0
N_ N_ 0.194881 0.974339 0.177703 0.0
N_ N_ 0.124473 0.900787 0.11533 0.0
N_ N_ 0.0446408 0.852063 0.1961 0.0
N_ N_ 0.0941772 0.94166 0.249988 0.0
O_ O_ 0.128186 0.51319 0.215185 0.0
O_ O_ 0.0761854 0.534806 0.248785 0.0
O_ O_ 0.0316208 0.664552 0.139246 0.0
O_ O_ 0.189744 0.60976 0.127585 0.0
O_ O_ 0.260067 0.558021 0.174555 0.0
O_ O_ 0.311758 0.516204 0.187206 0.0
O_ O_ 0.295427 0.620887 0.0704073 0.0
O_ O_ 0.120007 0.573273 0.0495812 0.0
O_ O_ 0.202796 0.736485 0.469037 0.0
O_ O_ 0.252511 0.713873 0.00205154 0.0
O_ O_ 0.277553 0.568433 0.398729 0.0
O_ O_ 0.126243 0.630038 0.397283 0.0
O_ O_ 0.0708573 0.69849 0.425371 0.0
O_ O_ 0.02124 0.742269 0.432735 0.0
O_ O_ 0.042141 0.634595 0.315943 0.0
O_ O_ 0.204579 0.669656 0.308811 0.0
O_ O_ 0.205442 0.989488 0.276662 0.0
O_ O_ 0.262925 0.969691 0.245072 0.0
O_ O_ 0.279227 0.821619 0.350934 0.0
O_ O_ 0.127494 0.884882 0.348798 0.0
O_ O_ 0.0733669 0.946989 0.325657 0.0
O_ O_ 0.0223407 0.990638 0.317092 0.0
O_ O_ 0.0475333 0.894581 0.44068 0.0
O_ O_ 0.203452 0.919364 0.440027 0.0
O_ O_ 0.137773 0.766041 0.0303077 0.0
O_ O_ 0.0839939 0.788835 0.498598 0.0
O_ O_ 0.0536932 0.928938 0.0953873 0.0
O_ O_ 0.19885 0.866549 0.109997 0.0
O_ O_ 0.262228 0.805934 0.0772262 0.0
O_ O_ 0.315306 0.766146 0.0643754 0.0
O_ O_ 0.285451 0.856279 0.19169 0.0
O_ O_ 0.124716 0.824391 0.197595 0.0
Cd Cd 0.229739 0.51215 0.712614 0.0
Cd Cd 0.105007 0.740442 0.964501 0.0
Cd Cd 0.102583 0.989352 0.785915 0.0
Cd Cd 0.231191 0.761171 0.537078 0.0
H_ H_ 0.0193511 0.582117 0.72823 0.0
H_ H_ 0.340509 0.633806 0.695113 0.0
H_ H_ 0.167081 0.564169 0.684179 0.0
H_ H_ 0.175695 0.761136 0.603154 0.0
H_ H_ 0.131656 0.715496 0.640482 0.0
H_ H_ 0.153803 0.632474 0.57189 0.0
H_ H_ 0.177745 0.682217 0.535581 0.0
H_ H_ 0.0669714 0.519052 0.654801 0.0
H_ H_ 0.119022 0.5317 0.606186 0.0
H_ H_ 0.275635 0.581942 0.623074 0.0
H_ H_ 0.106107 0.653703 0.964461 0.0
H_ H_ 0.0996331 0.603976 0.500602 0.0
H_ H_ 0.0191658 0.672575 0.562158 0.0
H_ H_ 0.0505819 0.72334 0.530616 0.0
H_ H_ 0.311754 0.666357 0.978034 0.0
H_ H_ 1.000426653 0.626179 0.936445 0.0
H_ H_ 0.16517 0.684436 0.930583 0.0
H_ H_ 0.136336 0.985848 0.852995 0.0
H_ H_ 0.204852 0.539429 0.882108 0.0
H_ H_ 0.175451 0.620419 0.820037 0.0
H_ H_ 0.129385 0.574325 0.786294 0.0
H_ H_ 0.266344 0.734214 0.904274 0.0
H_ H_ 0.211825 0.709442 0.859583 0.0
H_ H_ 0.0572678 0.670815 0.871642 0.0
H_ H_ 0.223933 0.598261 0.712953 0.0
H_ H_ 0.240039 0.651267 0.7481 0.0
H_ H_ 0.312006 0.58065 0.810667 0.0
H_ H_ 0.28542 0.532418 0.779906 0.0
H_ H_ 0.326148 0.928228 0.780866 0.0
H_ H_ 0.999353 0.870932 0.80972 0.0
H_ H_ 0.165678 0.935505 0.816319 0.0
H_ H_ 0.166098 0.740238 0.90183 0.0
H_ H_ 0.207341 0.779188 0.86399 0.0
H_ H_ 0.159788 0.868162 0.918544 0.0
H_ H_ 0.1235 0.827149 0.954487 0.0
H_ H_ 0.261972 0.979339 0.846397 0.0
H_ H_ 0.210448 0.957509 0.891497 0.0
H_ H_ 0.058945 0.922447 0.878567 0.0
H_ H_ 0.222123 0.846709 0.534562 0.0
H_ H_ 0.243466 0.89923 1.00242185 0.0
H_ H_ 0.290996 0.828493 0.930938 0.0
H_ H_ 0.284636 0.77853 0.96575 0.0
H_ H_ 0.01318 0.824663 0.531264 0.0
H_ H_ 0.332857 0.876385 0.561947 0.0
H_ H_ 0.165348 0.817166 0.572346 0.0
H_ H_ 0.162007 0.511501 0.652084 0.0
H_ H_ 0.133047 0.970986 0.613495 0.0
H_ H_ 0.168981 0.881412 0.670817 0.0
H_ H_ 0.201389 0.926535 0.710577 0.0
H_ H_ 0.0703404 0.769528 0.596557 0.0
H_ H_ 0.121587 0.788038 0.641243 0.0
H_ H_ 0.27758 0.831289 0.630113 0.0
H_ H_ 0.119711 0.903718 0.780492 0.0
H_ H_ 0.0891025 0.852259 0.749723 0.0
H_ H_ 0.0090766 0.920748 0.69159 0.0
H_ H_ 0.0492392 0.972846 0.719255 0.0
C_ C_ 0.105404 0.540934 0.72909 0.0
C_ C_ 0.0974606 0.57171 0.708819 0.0
C_ C_ 0.048583 0.589318 0.710532 0.0
C_ C_ 0.0356398 0.612752 0.687248 0.0
C_ C_ 0.0676258 0.613348 0.661778 0.0
C_ C_ 0.116153 0.597462 0.66091 0.0
C_ C_ 0.130521 0.576975 0.685 0.0
C_ C_ 0.150175 0.620508 0.643413 0.0
C_ C_ 0.071937 0.64064 0.641549 0.0
C_ C_ 0.166548 0.733521 0.59656 0.0
C_ C_ 0.147781 0.708714 0.617567 0.0
C_ C_ 0.142746 0.672456 0.60982 0.0
C_ C_ 0.155572 0.661631 0.579096 0.0
C_ C_ 0.168354 0.689408 0.558356 0.0
C_ C_ 0.304946 0.53729 0.668018 0.0
C_ C_ 0.334372 0.545343 0.639955 0.0
C_ C_ 0.0494643 0.532839 0.636207 0.0
C_ C_ 0.0780059 0.540438 0.608857 0.0
C_ C_ 0.053314 0.557527 0.586031 0.0
C_ C_ 0.336076 0.5681 0.589976 0.0
C_ C_ 0.311501 0.565569 0.617751 0.0
C_ C_ 0.0780424 0.579889 0.565238 0.0
C_ C_ 0.332527 0.596661 0.569965 0.0
C_ C_ 0.0894639 0.65781 0.98679 0.0
C_ C_ 0.0884877 0.628879 0.508412 0.0
C_ C_ 0.0593935 0.633045 0.534226 0.0
C_ C_ 0.0432883 0.666725 0.54215 0.0
C_ C_ 0.0600885 0.696396 0.524921 0.0
C_ C_ 0.228121 0.711144 0.976848 0.0
C_ C_ 0.236551 0.678295 0.957372 0.0
C_ C_ 0.281476 0.65768 0.962313 0.0
C_ C_ 0.294257 0.631801 0.9398 0.0
C_ C_ 0.253641 0.618984 0.920002 0.0
C_ C_ 0.207303 0.63712 0.917665 0.0
C_ C_ 0.201384 0.668506 0.934517 0.0
C_ C_ 0.187706 0.629651 0.889814 0.0
C_ C_ 0.261593 0.604659 0.892115 0.0
C_ C_ 0.169491 0.522584 0.842237 0.0
C_ C_ 0.19392 0.547067 0.859903 0.0
C_ C_ 0.198163 0.582317 0.852414 0.0
C_ C_ 0.171153 0.59337 0.826747 0.0
C_ C_ 0.150844 0.567556 0.806817 0.0
C_ C_ 0.0336955 0.715904 0.916141 0.0
C_ C_ 0.00232828 0.705664 0.889112 0.0
C_ C_ 0.283456 0.717549 0.88692 0.0
C_ C_ 0.25538 0.710714 0.859386 0.0
C_ C_ 0.280845 0.694862 0.834278 0.0
C_ C_ 0.99637 0.681457 0.838889 0.0
C_ C_ 0.0202191 0.682895 0.867884 0.0
C_ C_ 0.255139 0.671631 0.814428 0.0
C_ C_ 0.00045999999999990493 0.653763 0.820284 0.0
C_ C_ 0.235145 0.595529 0.737218 0.0
C_ C_ 0.249748 0.625047 0.755388 0.0
C_ C_ 0.275709 0.619621 0.783308 0.0
C_ C_ 0.288131 0.585016 0.791359 0.0
C_ C_ 0.269416 0.55619 0.773243 0.0
C_ C_ 0.231027 0.962842 0.774518 0.0
C_ C_ 0.243024 0.933614 0.794517 0.0
C_ C_ 0.290166 0.916586 0.793104 0.0
C_ C_ 0.296375 0.885826 0.810503 0.0
C_ C_ 0.25197 0.869982 0.824611 0.0
C_ C_ 0.205184 0.887566 0.826046 0.0
C_ C_ 0.201731 0.919836 0.811874 0.0
C_ C_ 0.182743 0.878068 0.852274 0.0
C_ C_ 0.253527 0.848179 0.849555 0.0
C_ C_ 0.165359 0.768964 0.904695 0.0
C_ C_ 0.185739 0.791452 0.882978 0.0
C_ C_ 0.18726 0.829318 0.888992 0.0
C_ C_ 0.164487 0.840882 0.914102 0.0
C_ C_ 0.14702 0.817836 0.936513 0.0
C_ C_ 0.0282906 0.961572 0.830754 0.0
C_ C_ 0.999149766 0.954461 0.859592 0.0
C_ C_ 0.281952 0.966122 0.864398 0.0
C_ C_ 0.251781 0.95421 0.889645 0.0
C_ C_ 0.278914 0.943681 0.913548 0.0
C_ C_ 0.996322 0.931111 0.910944 0.0
C_ C_ 0.0227693 0.935314 0.882697 0.0
C_ C_ 0.254888 0.922941 0.937054 0.0
C_ C_ 0.00140191 0.902967 0.929958 0.0
C_ C_ 0.234182 0.842469 0.511699 0.0
C_ C_ 0.253072 0.872777 0.993715 0.0
C_ C_ 0.271974 0.868604 0.964624 0.0
C_ C_ 0.282468 0.833518 0.95424 0.0
C_ C_ 0.272806 0.804264 0.973358 0.0
C_ C_ 0.107555 0.791161 0.52361 0.0
C_ C_ 0.0942768 0.820527 0.544185 0.0
C_ C_ 0.0494363 0.839417 0.539189 0.0
C_ C_ 0.0438691 0.870977 0.555668 0.0
C_ C_ 0.0860117 0.885292 0.573157 0.0
C_ C_ 0.131535 0.867658 0.575917 0.0
C_ C_ 0.135085 0.833868 0.563756 0.0
C_ C_ 0.151563 0.875711 0.603583 0.0
C_ C_ 0.0802206 0.903078 0.599637 0.0
C_ C_ 0.15898 0.98194 0.658434 0.0
C_ C_ 0.14353 0.958737 0.635143 0.0
C_ C_ 0.139892 0.92238 0.640427 0.0
C_ C_ 0.163792 0.910353 0.667176 0.0
C_ C_ 0.180783 0.935325 0.689899 0.0
C_ C_ 0.301174 0.785916 0.584929 0.0
C_ C_ 0.331915 0.794253 0.610728 0.0
C_ C_ 0.047614 0.780214 0.614241 0.0
C_ C_ 0.0780198 0.790164 0.639997 0.0
C_ C_ 0.0540585 0.806407 0.663979 0.0
C_ C_ 0.33795 0.818971 0.660561 0.0
C_ C_ 0.312189 0.816271 0.633474 0.0
C_ C_ 0.0794349 0.829007 0.685482 0.0
C_ C_ 0.33284 0.846712 0.680448 0.0
C_ C_ 0.103099 0.907104 0.758634 0.0
C_ C_ 0.0838696 0.87788 0.740909 0.0
C_ C_ 0.0592895 0.883367 0.713353 0.0
C_ C_ 0.0418291 0.917109 0.706979 0.0
C_ C_ 0.0611321 0.945642 0.724246 0.0
N_ N_ 0.178759 0.723968 0.567768 0.0
N_ N_ 0.12118 0.646226 0.630956 0.0
N_ N_ 0.0441678 0.60249 0.55371 0.0
N_ N_ 0.0880813 0.692851 0.499888 0.0
N_ N_ 0.149604 0.532195 0.815046 0.0
N_ N_ 0.219967 0.609081 0.87386 0.0
N_ N_ 0.287689 0.649252 0.802887 0.0
N_ N_ 0.243721 0.562058 0.746668 0.0
N_ N_ 0.146698 0.781556 0.93215 0.0
N_ N_ 0.210287 0.854668 0.866777 0.0
N_ N_ 0.289329 0.899351 0.946991 0.0
N_ N_ 0.250497 0.808537 0.000737088 0.0
N_ N_ 0.180386 0.969744 0.684025 0.0
N_ N_ 0.119034 0.895429 0.618495 0.0
N_ N_ 0.0461541 0.853044 0.695348 0.0
N_ N_ 0.0891565 0.940763 0.750631 0.0
O_ O_ 0.13441 0.517154 0.72084 0.0
O_ O_ 0.0733279 0.533557 0.750631 0.0
O_ O_ 0.0409392 0.666531 0.642955 0.0
O_ O_ 0.201427 0.626371 0.64935 0.0
O_ O_ 0.260993 0.551013 0.673011 0.0
O_ O_ 0.31437 0.511557 0.684565 0.0
O_ O_ 0.288141 0.608837 0.561353 0.0
O_ O_ 0.122367 0.572472 0.551357 0.0
O_ O_ 0.201193 0.736893 0.966819 0.0
O_ O_ 0.257894 0.716605 0.501298 0.0
O_ O_ 0.296401 0.580434 0.887785 0.0
O_ O_ 0.160382 0.652661 0.875139 0.0
O_ O_ 0.072918 0.698736 0.924186 0.0
O_ O_ 0.0260421 0.744456 0.930203 0.0
O_ O_ 0.0478213 0.645371 0.810028 0.0
O_ O_ 0.209965 0.677924 0.800457 0.0
O_ O_ 0.204154 0.987324 0.784544 0.0
O_ O_ 0.260276 0.968548 0.751443 0.0
O_ O_ 0.298706 0.841624 0.862875 0.0
O_ O_ 0.135342 0.884166 0.858777 0.0
O_ O_ 0.0690502 0.946217 0.824002 0.0
O_ O_ 0.0168303 0.988664 0.815302 0.0
O_ O_ 0.048302 0.896015 0.941384 0.0
O_ O_ 0.213836 0.93273 0.953079 0.0
O_ O_ 0.134984 0.766122 0.53282 0.0
O_ O_ 0.0849968 0.789403 -0.002519000000000049 0.0
O_ O_ 0.0377298 0.917432 0.608263 0.0
O_ O_ 0.20399 0.878958 0.607752 0.0
O_ O_ 0.260358 0.80139 0.578498 0.0
O_ O_ 0.309634 0.759674 0.569032 0.0
O_ O_ 0.302563 0.872446 0.676107 0.0
O_ O_ 0.123428 0.821122 0.698643 0.0
Cd Cd 0.564955 0.0119334 0.216095 0.0
Cd Cd 0.440495 0.237139 0.461406 0.0
Cd Cd 0.434893 0.487138 0.285994 0.0
Cd Cd 0.565102 0.262864 0.0357996 0.0
H_ H_ 0.357153 0.0871494 0.230022 0.0
H_ H_ 0.665993 0.122489 0.184778 0.0
H_ H_ 0.500558 0.0608186 0.180063 0.0
H_ H_ 0.52934 0.26284 0.103026 0.0
H_ H_ 0.496439 0.222783 0.142116 0.0
H_ H_ 0.494058 0.133264 0.0787636 0.0
H_ H_ 0.530301 0.175078 0.0409662 0.0
H_ H_ 0.396863 0.0132938 0.145471 0.0
H_ H_ 0.439725 0.0312479 0.0967023 0.0
H_ H_ 0.609431 0.079073 0.119857 0.0
H_ H_ 0.441689 0.150248 0.466435 0.0
H_ H_ 0.41653 0.104391 1.000161543 0.0
H_ H_ 0.352191 0.177124 0.0620842 0.0
H_ H_ 0.361677 0.223094 0.023965 0.0
H_ H_ 0.65146 0.171468 0.477024 0.0
H_ H_ 0.319595 0.112192 0.45059 0.0
H_ H_ 0.503045 0.188416 0.4321 0.0
H_ H_ 0.496366 0.491814 0.348712 0.0
H_ H_ 0.528887 0.0364503 0.389069 0.0
H_ H_ 0.491093 0.118105 0.32832 0.0
H_ H_ 0.466734 0.0747446 0.289346 0.0
H_ H_ 0.60379 0.240799 0.399715 0.0
H_ H_ 0.548375 0.212178 0.359334 0.0
H_ H_ 0.400241 0.179761 0.366747 0.0
H_ H_ 0.552251 0.0941974 0.218211 0.0
H_ H_ 0.579187 0.145252 0.249228 0.0
H_ H_ 0.649136 0.0799409 0.313776 0.0
H_ H_ 0.633265 0.0276004 0.279763 0.0
H_ H_ 0.650493 0.421033 0.272333 0.0
H_ H_ 0.322082 0.3643 0.299727 0.0
H_ H_ 0.505059 0.438215 0.320905 0.0
H_ H_ 0.491267 0.241652 0.395997 0.0
H_ H_ 0.533178 0.285752 0.359781 0.0
H_ H_ 0.509343 0.367096 0.42402 0.0
H_ H_ 0.480429 0.321952 0.460658 0.0
H_ H_ 0.601019 0.483667 0.346126 0.0
H_ H_ 0.547246 0.469261 0.392841 0.0
H_ H_ 0.391393 0.412852 0.378703 0.0
H_ H_ 0.543545 0.346773 0.0283716 0.0
H_ H_ 0.565652 0.397396 0.493736 0.0
H_ H_ 0.650604 0.328394 0.436966 0.0
H_ H_ 0.622749 0.2775 0.470652 0.0
H_ H_ 0.349889 0.325059 0.0259917 0.0
H_ H_ 0.665585 0.369676 0.0669782 0.0
H_ H_ 0.494058 0.309578 0.0736101 0.0
H_ H_ 0.496451 0.00818531 0.153537 0.0
H_ H_ 0.457712 0.465552 0.115055 0.0
H_ H_ 0.492309 0.379223 0.172343 0.0
H_ H_ 0.517314 0.422684 0.211997 0.0
H_ H_ 0.398623 0.267001 0.0994077 0.0
H_ H_ 0.440224 0.27246 0.147964 0.0
H_ H_ 0.606398 0.329163 0.128769 0.0
H_ H_ 0.432231 0.402023 0.284939 0.0
H_ H_ 0.4118 0.350114 0.253798 0.0
H_ H_ 0.357184 0.419644 0.18555 0.0
H_ H_ 0.389349 0.471572 0.215642 0.0
C_ C_ 0.443903 0.0420938 0.228686 0.0
C_ C_ 0.429817 0.0678479 0.207284 0.0
C_ C_ 0.388021 0.0915261 0.212542 0.0
C_ C_ 0.377298 0.118216 0.191258 0.0
C_ C_ 0.405577 0.120387 0.16394 0.0
C_ C_ 0.448454 0.0977821 0.1594 0.0
C_ C_ 0.46311 0.074411 0.182101 0.0
C_ C_ 0.484043 0.118187 0.140962 0.0
C_ C_ 0.418916 0.152384 0.149968 0.0
C_ C_ 0.521353 0.233433 0.0984767 0.0
C_ C_ 0.506119 0.210925 0.120464 0.0
C_ C_ 0.489524 0.175403 0.113233 0.0
C_ C_ 0.500526 0.163112 0.0847885 0.0
C_ C_ 0.520528 0.186184 0.0630001 0.0
C_ C_ 0.635432 0.0367027 0.16798 0.0
C_ C_ 0.664642 0.0437714 0.13861 0.0
C_ C_ 0.375928 0.0318485 0.130044 0.0
C_ C_ 0.39769 0.0373807 0.101379 0.0
C_ C_ 0.369769 0.0554155 0.0796004 0.0
C_ C_ 0.668741 0.0666267 0.0884904 0.0
C_ C_ 0.641078 0.0619898 0.115347 0.0
C_ C_ 0.396361 0.0779169 0.0584041 0.0
C_ C_ 0.666307 0.0953873 0.0684467 0.0
C_ C_ 0.42107 0.155889 0.486659 0.0
C_ C_ 0.40859 0.130389 0.00782811 0.0
C_ C_ 0.381841 0.135635 0.0334472 0.0
C_ C_ 0.372824 0.17079 0.0414499 0.0
C_ C_ 0.380499 0.198412 0.0198074 0.0
C_ C_ 0.565654 0.212038 0.479911 0.0
C_ C_ 0.574597 0.182507 0.459536 0.0
C_ C_ 0.61982 0.162064 0.462013 0.0
C_ C_ 0.626182 0.13359 0.44196 0.0
C_ C_ 0.581101 0.121217 0.425031 0.0
C_ C_ 0.536593 0.138627 0.423619 0.0
C_ C_ 0.534258 0.171691 0.437464 0.0
C_ C_ 0.512025 0.130494 0.394691 0.0
C_ C_ 0.582634 0.100312 0.398221 0.0
C_ C_ 0.496181 0.0192814 0.345159 0.0
C_ C_ 0.521364 0.0439375 0.365374 0.0
C_ C_ 0.520047 0.0799277 0.359397 0.0
C_ C_ 0.499419 0.0920315 0.332138 0.0
C_ C_ 0.480485 0.0667973 0.311584 0.0
C_ C_ 0.363081 0.209402 0.417035 0.0
C_ C_ 0.336461 0.206563 0.387196 0.0
C_ C_ 0.620785 0.221842 0.384339 0.0
C_ C_ 0.590793 0.212554 0.358247 0.0
C_ C_ 0.613594 0.194104 0.335214 0.0
C_ C_ 0.337712 0.188181 0.335502 0.0
C_ C_ 0.362873 0.190726 0.363593 0.0
C_ C_ 0.588489 0.173729 0.313281 0.0
C_ C_ 0.343896 0.16069 0.314622 0.0
C_ C_ 0.568897 0.0906745 0.240373 0.0
C_ C_ 0.580002 0.120363 0.258807 0.0
C_ C_ 0.604087 0.11614 0.287001 0.0
C_ C_ 0.621831 0.0822679 0.294652 0.0
C_ C_ 0.61398 0.0530851 0.27529 0.0
C_ C_ 0.562377 0.461162 0.271586 0.0
C_ C_ 0.572007 0.431106 0.291654 0.0
C_ C_ 0.619175 0.412511 0.28901 0.0
C_ C_ 0.62594 0.382173 0.3072 0.0
C_ C_ 0.585401 0.370664 0.325143 0.0
C_ C_ 0.536853 0.386846 0.325468 0.0
C_ C_ 0.534207 0.42046 0.312747 0.0
C_ C_ 0.511601 0.376013 0.35189 0.0
C_ C_ 0.58988 0.354485 0.353078 0.0
C_ C_ 0.495734 0.268523 0.401607 0.0
C_ C_ 0.5189 0.293367 0.381738 0.0
C_ C_ 0.524789 0.330044 0.389129 0.0
C_ C_ 0.511446 0.339249 0.418707 0.0
C_ C_ 0.492043 0.313784 0.438801 0.0
C_ C_ 0.369077 0.461789 0.335661 0.0
C_ C_ 0.338731 0.451936 0.362523 0.0
C_ C_ 0.616497 0.468284 0.363514 0.0
C_ C_ 0.586293 0.458747 0.389128 0.0
C_ C_ 0.611717 0.441254 0.413187 0.0
C_ C_ 0.33866 0.428805 0.412046 0.0
C_ C_ 0.361965 0.430466 0.383912 0.0
C_ C_ 0.584781 0.416496 0.432234 0.0
C_ C_ 0.338174 0.400263 0.431516 0.0
C_ C_ 0.570452 0.34262 0.0101263 0.0
C_ C_ 0.58134 0.371845 0.49107 0.0
C_ C_ 0.607235 0.36552 0.463603 0.0
C_ C_ 0.624877 0.331114 0.456771 0.0
C_ C_ 0.612178 0.304427 0.476103 0.0
C_ C_ 0.434146 0.28313 0.0246366 0.0
C_ C_ 0.429055 0.315508 0.0440962 0.0
C_ C_ 0.382465 0.334963 0.0409783 0.0
C_ C_ 0.375523 0.366102 0.0568641 0.0
C_ C_ 0.420494 0.3815 0.0735998 0.0
C_ C_ 0.465131 0.361511 0.0775575 0.0
C_ C_ 0.466325 0.326754 0.0656733 0.0
C_ C_ 0.48399 0.369865 0.105926 0.0
C_ C_ 0.413044 0.39982 0.10133 0.0
C_ C_ 0.49537 0.480171 0.156741 0.0
C_ C_ 0.471538 0.455334 0.135971 0.0
C_ C_ 0.47316 0.419073 0.141707 0.0
C_ C_ 0.493069 0.407858 0.168244 0.0
C_ C_ 0.507181 0.432324 0.190666 0.0
C_ C_ 0.6344 0.286598 0.0828189 0.0
C_ C_ 0.664916 0.294772 0.110187 0.0
C_ C_ 0.380748 0.281313 0.116503 0.0
C_ C_ 0.403853 0.285358 0.144438 0.0
C_ C_ 0.379612 0.30579 0.165716 0.0
C_ C_ 0.671095 0.318775 0.160923 0.0
C_ C_ 0.641382 0.313733 0.133428 0.0
C_ C_ 0.400617 0.323129 0.19102 0.0
C_ C_ 0.665554 0.345227 0.182399 0.0
C_ C_ 0.427387 0.406036 0.261028 0.0
C_ C_ 0.409121 0.37688 0.244453 0.0
C_ C_ 0.38668 0.380777 0.217126 0.0
C_ C_ 0.377302 0.415695 0.206902 0.0
C_ C_ 0.39495 0.443865 0.224389 0.0
N_ N_ 0.530248 0.220808 0.0698906 0.0
N_ N_ 0.465905 0.151282 0.135536 0.0
N_ N_ 0.368693 0.106709 0.0549367 0.0
N_ N_ 0.41017 0.192778 0.99458 0.0
N_ N_ 0.482446 0.031117 0.317242 0.0
N_ N_ 0.540456 0.105745 0.38063 0.0
N_ N_ 0.621577 0.148013 0.304015 0.0
N_ N_ 0.58113 0.0565355 0.250821 0.0
N_ N_ 0.483003 0.27963 0.429855 0.0
N_ N_ 0.544207 0.357781 0.368984 0.0
N_ N_ 0.620317 0.39519 0.444139 0.0
N_ N_ 0.586421 0.310156 0.503362 0.0
N_ N_ 0.516173 0.467687 0.183163 0.0
N_ N_ 0.452636 0.393044 0.120188 0.0
N_ N_ 0.369602 0.350256 0.199686 0.0
N_ N_ 0.420847 0.439639 0.251169 0.0
O_ O_ 0.471007 0.0169103 0.220386 0.0
O_ O_ 0.415005 0.0380641 0.251323 0.0
O_ O_ 0.381524 0.174399 0.140864 0.0
O_ O_ 0.534588 0.115469 0.14399 0.0
O_ O_ 0.591231 0.0510364 0.172435 0.0
O_ O_ 0.650649 0.0151477 0.187275 0.0
O_ O_ 0.626095 0.11427 0.0664855 0.0
O_ O_ 0.450075 0.0781939 0.0538468 0.0
O_ O_ 0.537543 0.237595 0.472376 0.0
O_ O_ 0.59239 0.218446 0.00104162 0.0
O_ O_ 0.617903 0.0766003 0.39315 0.0
O_ O_ 0.460429 0.129897 0.391325 0.0
O_ O_ 0.40715 0.195815 0.421743 0.0
O_ O_ 0.355963 0.236663 0.432314 0.0
O_ O_ 0.378554 0.135259 0.318753 0.0
O_ O_ 0.536572 0.167606 0.31239 0.0
O_ O_ 0.529465 0.48405 0.278308 0.0
O_ O_ 0.590242 0.466942 0.248775 0.0
O_ O_ 0.634074 0.342811 0.366309 0.0
O_ O_ 0.461518 0.365566 0.351886 0.0
O_ O_ 0.411879 0.448445 0.330661 0.0
O_ O_ 0.35131 0.48073 0.314642 0.0
O_ O_ 0.371371 0.373588 0.428618 0.0
O_ O_ 0.539071 0.422473 0.445564 0.0
O_ O_ 0.470161 0.262194 0.0288617 0.0
O_ O_ 0.41221 0.282212 0.495866 0.0
O_ O_ 0.365776 0.406047 0.111254 0.0
O_ O_ 0.513586 0.347354 0.122099 0.0
O_ O_ 0.597466 0.30551 0.0753022 0.0
O_ O_ 0.639381 0.258449 0.0679714 0.0
O_ O_ 0.629754 0.368896 0.17873 0.0
O_ O_ 0.448707 0.319714 0.201693 0.0
Cd Cd 0.561453 0.0111919 0.714616 0.0
Cd Cd 0.435065 0.237766 0.961966 0.0
Cd Cd 0.438679 0.487804 0.786061 0.0
Cd Cd 0.568678 0.261635 0.534536 0.0
H_ H_ 0.405524 0.103189 0.748504 0.0
H_ H_ 0.67233 0.133211 0.694436 0.0
H_ H_ 0.457493 0.0485553 0.669639 0.0
H_ H_ 0.46573 0.239264 0.57809 0.0
H_ H_ 0.437271 0.193942 0.614887 0.0
H_ H_ 0.578534 0.140773 0.597748 0.0
H_ H_ 0.598063 0.181137 0.556022 0.0
H_ H_ 0.382647 0.00270459 0.639565 0.0
H_ H_ 0.425045 0.0178717 0.589375 0.0
H_ H_ 0.600486 0.0715882 0.617686 0.0
H_ H_ 0.439312 0.154009 0.967018 0.0
H_ H_ 0.412135 0.100981 0.496828 0.0
H_ H_ 0.36598 0.179311 0.565334 0.0
H_ H_ 0.384373 0.22527 0.526105 0.0
H_ H_ 0.649993 0.173965 0.975868 0.0
H_ H_ 0.294059 0.094807 0.964201 0.0
H_ H_ 0.499384 0.182521 0.934641 0.0
H_ H_ 0.497024 0.492408 0.849725 0.0
H_ H_ 0.540516 0.0359125 0.884643 0.0
H_ H_ 0.488356 0.119532 0.830371 0.0
H_ H_ 0.443803 0.0748598 0.794582 0.0
H_ H_ 0.595764 0.227805 0.9045 0.0
H_ H_ 0.541015 0.2028 0.863901 0.0
H_ H_ 0.395568 0.162717 0.871223 0.0
H_ H_ 0.55334 0.098514 0.71543 0.0
H_ H_ 0.57917 0.152743 0.749135 0.0
H_ H_ 0.631757 0.0804838 0.814276 0.0
H_ H_ 0.615686 0.028917 0.779331 0.0
H_ H_ 0.647064 0.421347 0.77635 0.0
H_ H_ 0.199988 0.338517 0.770158 0.0
H_ H_ 0.498267 0.429307 0.821766 0.0
H_ H_ 0.486751 0.237587 0.893632 0.0
H_ H_ 0.540573 0.280156 0.862519 0.0
H_ H_ 0.499945 0.365004 0.923988 0.0
H_ H_ 0.458205 0.322916 0.954399 0.0
H_ H_ 0.594942 0.474535 0.84298 0.0
H_ H_ 0.545041 0.46418 0.89221 0.0
H_ H_ 0.395592 0.419358 0.876667 0.0
H_ H_ 0.556782 0.347923 0.533168 0.0
H_ H_ 0.583138 0.398116 1.00348694 0.0
H_ H_ 0.638724 0.325248 0.934572 0.0
H_ H_ 0.625293 0.277848 0.971163 0.0
H_ H_ 0.425409 0.355262 0.494653 0.0
H_ H_ 0.665689 0.372883 0.564559 0.0
H_ H_ 0.458014 0.301273 0.577488 0.0
H_ H_ 0.505441 0.00852297 0.651326 0.0
H_ H_ 0.45588 0.464561 0.617743 0.0
H_ H_ 0.556474 0.386804 0.654673 0.0
H_ H_ 0.576672 0.429728 0.696424 0.0
H_ H_ 0.364326 0.243795 0.612193 0.0
H_ H_ 0.406771 0.258723 0.662614 0.0
H_ H_ 0.59872 0.32015 0.633245 0.0
H_ H_ 0.344097 0.42547 0.774349 0.0
H_ H_ 0.316847 0.375481 0.737751 0.0
H_ H_ 0.476888 0.385731 0.703175 0.0
H_ H_ 0.494553 0.440864 0.734317 0.0
C_ C_ 0.440157 0.0391322 0.728387 0.0
C_ C_ 0.441559 0.0733901 0.711848 0.0
C_ C_ 0.429835 0.105488 0.726505 0.0
C_ C_ 0.440795 0.138866 0.712251 0.0
C_ C_ 0.452265 0.139168 0.680818 0.0
C_ C_ 0.456616 0.106254 0.66632 0.0
C_ C_ 0.449952 0.0737395 0.681065 0.0
C_ C_ 0.491454 0.113818 0.643481 0.0
C_ C_ 0.485904 0.162033 0.66641 0.0
C_ C_ 0.488262 0.215991 0.580678 0.0
C_ C_ 0.476114 0.193674 0.605841 0.0
C_ C_ 0.512297 0.1681 0.613409 0.0
C_ C_ 0.552323 0.161885 0.593378 0.0
C_ C_ 0.562973 0.184935 0.568654 0.0
C_ C_ 0.631627 0.032952 0.666386 0.0
C_ C_ 0.663839 0.0422124 0.638863 0.0
C_ C_ 0.366889 0.0228481 0.626223 0.0
C_ C_ 0.387104 0.0295457 0.597264 0.0
C_ C_ 0.361897 0.0529303 0.578663 0.0
C_ C_ 0.669615 0.0668798 0.588436 0.0
C_ C_ 0.639714 0.0610538 0.615207 0.0
C_ C_ 0.387938 0.0725566 0.55558 0.0
C_ C_ 0.665115 0.0974826 0.569538 0.0
C_ C_ 0.421607 0.159171 0.98828 0.0
C_ C_ 0.406268 0.126953 0.505014 0.0
C_ C_ 0.387003 0.134194 0.534252 0.0
C_ C_ 0.383406 0.170856 0.543682 0.0
C_ C_ 0.400734 0.198145 0.523726 0.0
C_ C_ 0.563954 0.213919 0.977702 0.0
C_ C_ 0.573245 0.183258 0.956828 0.0
C_ C_ 0.618576 0.163593 0.959892 0.0
C_ C_ 0.627847 0.134963 0.940027 0.0
C_ C_ 0.586788 0.121036 0.922637 0.0
C_ C_ 0.538425 0.135795 0.924069 0.0
C_ C_ 0.53266 0.167795 0.940102 0.0
C_ C_ 0.512605 0.126869 0.897854 0.0
C_ C_ 0.58895 0.103778 0.895339 0.0
C_ C_ 0.501686 0.0202794 0.84258 0.0
C_ C_ 0.518808 0.0443517 0.864273 0.0
C_ C_ 0.518636 0.0802621 0.858818 0.0
C_ C_ 0.49439 0.0921136 0.83354 0.0
C_ C_ 0.470487 0.0674736 0.812451 0.0
C_ C_ 0.36824 0.213319 0.91381 0.0
C_ C_ 0.338445 0.203014 0.885357 0.0
C_ C_ 0.615439 0.216975 0.886523 0.0
C_ C_ 0.584404 0.205748 0.861303 0.0
C_ C_ 0.61072 0.19178 0.836204 0.0
C_ C_ 0.349565 0.182883 0.834951 0.0
C_ C_ 0.362113 0.179653 0.864848 0.0
C_ C_ 0.58717 0.1703 0.814697 0.0
C_ C_ 0.355298 0.155364 0.814452 0.0
C_ C_ 0.572335 0.0966597 0.737064 0.0
C_ C_ 0.583502 0.124694 0.756662 0.0
C_ C_ 0.609923 0.119374 0.783006 0.0
C_ C_ 0.612833 0.0844636 0.793232 0.0
C_ C_ 0.601182 0.0554202 0.77426 0.0
C_ C_ 0.561276 0.45985 0.774967 0.0
C_ C_ 0.567589 0.425373 0.791018 0.0
C_ C_ 0.61559 0.40849 0.788805 0.0
C_ C_ 0.625618 0.380643 0.807365 0.0
C_ C_ 0.584789 0.365776 0.826404 0.0
C_ C_ 0.538993 0.381827 0.828061 0.0
C_ C_ 0.528886 0.412041 0.811288 0.0
C_ C_ 0.517893 0.376076 0.856488 0.0
C_ C_ 0.591089 0.350439 0.854682 0.0
C_ C_ 0.49073 0.267204 0.89982 0.0
C_ C_ 0.521348 0.291265 0.882132 0.0
C_ C_ 0.528929 0.327184 0.891978 0.0
C_ C_ 0.506811 0.337027 0.918983 0.0
C_ C_ 0.478452 0.313418 0.93594 0.0
C_ C_ 0.363436 0.460577 0.832449 0.0
C_ C_ 0.334984 0.451002 0.859227 0.0
C_ C_ 0.614049 0.462428 0.862366 0.0
C_ C_ 0.584489 0.453019 0.888291 0.0
C_ C_ 0.610024 0.438744 0.911625 0.0
C_ C_ 0.333032 0.426314 0.908494 0.0
C_ C_ 0.358531 0.431053 0.881058 0.0
C_ C_ 0.585139 0.414769 0.932799 0.0
C_ C_ 0.334963 0.393532 0.92279 0.0
C_ C_ 0.570512 0.343943 0.510939 0.0
C_ C_ 0.587001 0.371088 0.993126 0.0
C_ C_ 0.611844 0.365984 0.965054 0.0
C_ C_ 0.622115 0.331724 0.955952 0.0
C_ C_ 0.611651 0.304195 0.976104 0.0
C_ C_ 0.442213 0.288221 0.5185 0.0
C_ C_ 0.44406 0.324576 0.534005 0.0
C_ C_ 0.434844 0.355869 0.517865 0.0
C_ C_ 0.444867 0.390081 0.530473 0.0
C_ C_ 0.452392 0.391269 0.562107 0.0
C_ C_ 0.453331 0.360566 0.579026 0.0
C_ C_ 0.451222 0.325586 0.565139 0.0
C_ C_ 0.48178 0.369188 0.605206 0.0
C_ C_ 0.484137 0.416957 0.578314 0.0
C_ C_ 0.501049 0.480163 0.656223 0.0
C_ C_ 0.484721 0.457428 0.633984 0.0
C_ C_ 0.503901 0.423748 0.632727 0.0
C_ C_ 0.538573 0.412398 0.655209 0.0
C_ C_ 0.552203 0.437242 0.678314 0.0
C_ C_ 0.632402 0.285509 0.582711 0.0
C_ C_ 0.663361 0.293489 0.611225 0.0
C_ C_ 0.366777 0.270058 0.62041 0.0
C_ C_ 0.396569 0.279191 0.646993 0.0
C_ C_ 0.40042 0.314584 0.657241 0.0
C_ C_ 0.668128 0.315581 0.662466 0.0
C_ C_ 0.640194 0.310921 0.635218 0.0
C_ C_ 0.405356 0.325539 0.686911 0.0
C_ C_ 0.663486 0.342895 0.683589 0.0
C_ C_ 0.366774 0.421367 0.753927 0.0
C_ C_ 0.353189 0.391423 0.734542 0.0
C_ C_ 0.392513 0.381384 0.714534 0.0
C_ C_ 0.443869 0.397828 0.714932 0.0
C_ C_ 0.454529 0.42685 0.734196 0.0
N_ N_ 0.532033 0.211848 0.562958 0.0
N_ N_ 0.506759 0.14857 0.641587 0.0
N_ N_ 0.366767 0.10456 0.55248 0.0
N_ N_ 0.424453 0.189807 0.497666 0.0
N_ N_ 0.474592 0.0317905 0.817595 0.0
N_ N_ 0.542655 0.106787 0.880294 0.0
N_ N_ 0.622741 0.148824 0.803123 0.0
N_ N_ 0.580658 0.0614931 0.746855 0.0
N_ N_ 0.471278 0.278354 0.926658 0.0
N_ N_ 0.550417 0.354819 0.872118 0.0
N_ N_ 0.620569 0.394406 0.944168 0.0
N_ N_ 0.579973 0.309394 0.00140553 0.0
N_ N_ 0.528723 0.468728 0.679817 0.0
N_ N_ 0.499964 0.403716 0.604908 0.0
N_ N_ 0.378885 0.355094 0.691738 0.0
N_ N_ 0.416605 0.438445 0.752055 0.0
O_ O_ 0.461861 0.0136177 0.716671 0.0
O_ O_ 0.409874 0.0322541 0.749153 0.0
O_ O_ 0.509347 0.189505 0.679575 0.0
O_ O_ 0.496656 0.0923538 0.621605 0.0
O_ O_ 0.590319 0.0487944 0.67352 0.0
O_ O_ 0.640995 0.00534826 0.682756 0.0
O_ O_ 0.618481 0.105198 0.557796 0.0
O_ O_ 0.435674 0.0671858 0.547726 0.0
O_ O_ 0.534177 0.237902 0.97016 0.0
O_ O_ 0.596758 0.216466 0.502192 0.0
O_ O_ 0.635835 0.0993799 0.881376 0.0
O_ O_ 0.46075 0.122766 0.898007 0.0
O_ O_ 0.406565 0.197029 0.92147 0.0
O_ O_ 0.357495 0.240127 0.929088 0.0
O_ O_ 0.401106 0.142125 0.809048 0.0
O_ O_ 0.542448 0.178446 0.801023 0.0
O_ O_ 0.5377 0.485099 0.786369 0.0
O_ O_ 0.584969 0.464872 0.750249 0.0
O_ O_ 0.638326 0.347581 0.865822 0.0
O_ O_ 0.468185 0.375832 0.861233 0.0
O_ O_ 0.406535 0.445201 0.825537 0.0
O_ O_ 0.354102 0.488054 0.817101 0.0
O_ O_ 0.379713 0.377276 0.928151 0.0
O_ O_ 0.541861 0.422278 0.946964 0.0
O_ O_ 0.475046 0.264133 0.526818 0.0
O_ O_ 0.405349 0.280064 1.00067 0.0
O_ O_ 0.504115 0.447909 0.567203 0.0
O_ O_ 0.506616 0.343642 0.618281 0.0
O_ O_ 0.587241 0.296092 0.580294 0.0
O_ O_ 0.647093 0.263027 0.564145 0.0
O_ O_ 0.622615 0.364886 0.684701 0.0
O_ O_ 0.413836 0.302379 0.708545 0.0
Cd Cd 0.56145 0.512145 0.214245 0.0
Cd Cd 0.436821 0.738587 0.464502 0.0
Cd Cd 0.436896 0.98896 0.285777 0.0
Cd Cd 0.563258 0.761415 0.035497 0.0
H_ H_ 0.349197 0.57588 0.222729 0.0
H_ H_ 0.668448 0.629434 0.190568 0.0
H_ H_ 0.500831 0.567072 0.181774 0.0
H_ H_ 0.497565 0.758852 0.0964832 0.0
H_ H_ 0.450793 0.715126 0.131154 0.0
H_ H_ 0.50255 0.630087 0.0760597 0.0
H_ H_ 0.534055 0.675519 0.0380733 0.0
H_ H_ 0.406572 0.524519 0.155281 0.0
H_ H_ 0.452946 0.531686 0.107522 0.0
H_ H_ 0.604869 0.575606 0.119203 0.0
H_ H_ 0.449797 0.653553 0.468252 0.0
H_ H_ 0.422909 0.601142 0.998941 0.0
H_ H_ 0.364273 0.671223 0.0654912 0.0
H_ H_ 0.382521 0.722479 0.0309673 0.0
H_ H_ 0.647384 0.668998 0.477206 0.0
H_ H_ 0.325778 0.615303 0.445321 0.0
H_ H_ 0.500626 0.685009 0.429648 0.0
H_ H_ 0.493762 0.99103 0.348852 0.0
H_ H_ 0.549808 0.534267 0.380937 0.0
H_ H_ 0.506515 0.619833 0.323022 0.0
H_ H_ 0.458448 0.574985 0.289596 0.0
H_ H_ 0.595092 0.726207 0.405828 0.0
H_ H_ 0.543609 0.708054 0.360709 0.0
H_ H_ 0.395688 0.674986 0.368948 0.0
H_ H_ 0.553575 0.59644 0.216873 0.0
H_ H_ 0.580634 0.649204 0.247965 0.0
H_ H_ 0.647047 0.579807 0.311752 0.0
H_ H_ 0.620243 0.528455 0.280226 0.0
H_ H_ 0.646766 0.918055 0.272255 0.0
H_ H_ 0.32526 0.868962 0.301963 0.0
H_ H_ 0.499374 0.932958 0.318809 0.0
H_ H_ 0.500146 0.741429 0.402122 0.0
H_ H_ 0.537784 0.785765 0.366093 0.0
H_ H_ 0.49569 0.870216 0.423883 0.0
H_ H_ 0.463718 0.824703 0.462004 0.0
H_ H_ 0.598625 0.980753 0.344669 0.0
H_ H_ 0.552127 0.971439 0.395374 0.0
H_ H_ 0.399444 0.931373 0.383247 0.0
H_ H_ 0.550951 0.846272 0.0325532 0.0
H_ H_ 0.57678 0.898934 0.501005 0.0
H_ H_ 0.639507 0.829224 0.435174 0.0
H_ H_ 0.624411 0.779415 0.471471 0.0
H_ H_ 0.354917 0.832958 0.0209722 0.0
H_ H_ 0.672842 0.884008 0.0549778 0.0
H_ H_ 0.498892 0.815178 0.0702528 0.0
H_ H_ 0.500395 0.508413 0.152338 0.0
H_ H_ 0.455477 0.964791 0.117439 0.0
H_ H_ 0.499181 0.879969 0.175644 0.0
H_ H_ 0.53885 0.925225 0.2109 0.0
H_ H_ 0.402979 0.77026 0.0952161 0.0
H_ H_ 0.455113 0.786785 0.141306 0.0
H_ H_ 0.604364 0.824876 0.131063 0.0
H_ H_ 0.445366 0.903364 0.28328 0.0
H_ H_ 0.423131 0.850974 0.251095 0.0
H_ H_ 0.360554 0.920902 0.185192 0.0
H_ H_ 0.381605 0.971767 0.219611 0.0
C_ C_ 0.43868 0.539998 0.227052 0.0
C_ C_ 0.42932 0.570771 0.207483 0.0
C_ C_ 0.381853 0.588822 0.210019 0.0
C_ C_ 0.372918 0.617352 0.190542 0.0
C_ C_ 0.414437 0.63051 0.171853 0.0
C_ C_ 0.4608 0.613273 0.169669 0.0
C_ C_ 0.466734 0.581574 0.185219 0.0
C_ C_ 0.481436 0.620719 0.141473 0.0
C_ C_ 0.408884 0.648598 0.145016 0.0
C_ C_ 0.497609 0.730298 0.0920919 0.0
C_ C_ 0.472407 0.705623 0.111814 0.0
C_ C_ 0.471479 0.669032 0.105206 0.0
C_ C_ 0.49651 0.658066 0.0790275 0.0
C_ C_ 0.51981 0.683656 0.0593936 0.0
C_ C_ 0.634705 0.53623 0.167278 0.0
C_ C_ 0.665401 0.544726 0.139664 0.0
C_ C_ 0.384406 0.533773 0.136493 0.0
C_ C_ 0.413353 0.541779 0.110068 0.0
C_ C_ 0.387771 0.557109 0.0859562 0.0
C_ C_ 0.669945 0.568029 0.0889766 0.0
C_ C_ 0.642605 0.56379 0.116129 0.0
C_ C_ 0.413024 0.579403 0.0648629 0.0
C_ C_ 0.666112 0.596676 0.0696897 0.0
C_ C_ 0.430381 0.657225 0.489051 0.0
C_ C_ 0.416542 0.62753 0.00700845 0.0
C_ C_ 0.392127 0.632198 0.0347975 0.0
C_ C_ 0.380366 0.666644 0.0436273 0.0
C_ C_ 0.394123 0.695648 0.0247575 0.0
C_ C_ 0.56132 0.710002 0.477052 0.0
C_ C_ 0.57068 0.679229 0.457483 0.0
C_ C_ 0.618147 0.661178 0.460019 0.0
C_ C_ 0.627082 0.632648 0.440542 0.0
C_ C_ 0.585563 0.61949 0.421853 0.0
C_ C_ 0.5392 0.636727 0.419669 0.0
C_ C_ 0.533266 0.668426 0.435219 0.0
C_ C_ 0.518564 0.629281 0.391473 0.0
C_ C_ 0.591116 0.601402 0.395016 0.0
C_ C_ 0.502391 0.519702 0.342092 0.0
C_ C_ 0.527593 0.544377 0.361814 0.0
C_ C_ 0.528521 0.580968 0.355206 0.0
C_ C_ 0.50349 0.591934 0.329027 0.0
C_ C_ 0.48019 0.566344 0.309394 0.0
C_ C_ 0.365295 0.71377 0.417278 0.0
C_ C_ 0.334599 0.705274 0.389664 0.0
C_ C_ 0.615594 0.716227 0.386493 0.0
C_ C_ 0.586647 0.708221 0.360068 0.0
C_ C_ 0.612229 0.692891 0.335956 0.0
C_ C_ 0.330055 0.681971 0.338977 0.0
C_ C_ 0.357395 0.68621 0.366129 0.0
C_ C_ 0.586976 0.670597 0.314863 0.0
C_ C_ 0.333888 0.653324 0.31969 0.0
C_ C_ 0.569619 0.592775 0.239051 0.0
C_ C_ 0.583458 0.62247 0.257008 0.0
C_ C_ 0.607873 0.617802 0.284798 0.0
C_ C_ 0.619634 0.583356 0.293627 0.0
C_ C_ 0.605877 0.554352 0.274758 0.0
C_ C_ 0.56132 0.960002 0.272948 0.0
C_ C_ 0.57068 0.929229 0.292517 0.0
C_ C_ 0.618147 0.911178 0.289981 0.0
C_ C_ 0.627082 0.882648 0.309458 0.0
C_ C_ 0.585563 0.86949 0.328147 0.0
C_ C_ 0.5392 0.886727 0.330331 0.0
C_ C_ 0.533266 0.918426 0.314781 0.0
C_ C_ 0.518564 0.879281 0.358527 0.0
C_ C_ 0.591116 0.851402 0.354984 0.0
C_ C_ 0.502391 0.769702 0.407908 0.0
C_ C_ 0.527593 0.794377 0.388186 0.0
C_ C_ 0.528521 0.830968 0.394794 0.0
C_ C_ 0.50349 0.841934 0.420973 0.0
C_ C_ 0.48019 0.816344 0.440606 0.0
C_ C_ 0.365295 0.96377 0.332722 0.0
C_ C_ 0.334599 0.955274 0.360336 0.0
C_ C_ 0.615594 0.966227 0.363507 0.0
C_ C_ 0.586647 0.958221 0.389932 0.0
C_ C_ 0.612229 0.942891 0.414044 0.0
C_ C_ 0.330055 0.931971 0.411023 0.0
C_ C_ 0.357395 0.93621 0.383871 0.0
C_ C_ 0.586976 0.920597 0.435137 0.0
C_ C_ 0.333888 0.903324 0.43031 0.0
C_ C_ 0.569619 0.842775 0.010949 0.0
C_ C_ 0.583458 0.87247 0.492992 0.0
C_ C_ 0.607873 0.867802 0.465202 0.0
C_ C_ 0.619634 0.833356 0.456373 0.0
C_ C_ 0.605877 0.804352 0.475242 0.0
C_ C_ 0.43868 0.789998 0.0229477 0.0
C_ C_ 0.42932 0.820771 0.0425173 0.0
C_ C_ 0.381853 0.838822 0.0399812 0.0
C_ C_ 0.372918 0.867352 0.0594584 0.0
C_ C_ 0.414437 0.88051 0.0781469 0.0
C_ C_ 0.4608 0.863273 0.0803307 0.0
C_ C_ 0.466734 0.831574 0.0647812 0.0
C_ C_ 0.481436 0.870719 0.108527 0.0
C_ C_ 0.408884 0.898598 0.104984 0.0
C_ C_ 0.497609 0.980298 0.157908 0.0
C_ C_ 0.472407 0.955623 0.138186 0.0
C_ C_ 0.471479 0.919032 0.144794 0.0
C_ C_ 0.49651 0.908066 0.170973 0.0
C_ C_ 0.51981 0.933656 0.190606 0.0
C_ C_ 0.634705 0.78623 0.0827219 0.0
C_ C_ 0.665401 0.794726 0.110336 0.0
C_ C_ 0.384406 0.783773 0.113507 0.0
C_ C_ 0.413353 0.791779 0.139932 0.0
C_ C_ 0.387771 0.807109 0.164044 0.0
C_ C_ 0.669945 0.818029 0.161023 0.0
C_ C_ 0.642605 0.81379 0.133871 0.0
C_ C_ 0.413024 0.829403 0.185137 0.0
C_ C_ 0.666112 0.846676 0.18031 0.0
C_ C_ 0.430381 0.907225 0.260949 0.0
C_ C_ 0.416542 0.87753 0.242992 0.0
C_ C_ 0.392127 0.882198 0.215202 0.0
C_ C_ 0.380366 0.916644 0.206373 0.0
C_ C_ 0.394123 0.945648 0.225242 0.0
N_ N_ 0.519601 0.719087 0.066102 0.0
N_ N_ 0.450277 0.642872 0.126543 0.0
N_ N_ 0.378193 0.601806 0.0536496 0.0
N_ N_ 0.420902 0.690701 0.9986 0.0
N_ N_ 0.480399 0.530913 0.316102 0.0
N_ N_ 0.549723 0.607128 0.376543 0.0
N_ N_ 0.621807 0.648194 0.30365 0.0
N_ N_ 0.579098 0.559299 0.2486 0.0
N_ N_ 0.480399 0.780913 0.433898 0.0
N_ N_ 0.549723 0.857128 0.373457 0.0
N_ N_ 0.621807 0.898194 0.44635 0.0
N_ N_ 0.579098 0.809299 0.5014 0.0
N_ N_ 0.519601 0.969087 0.183898 0.0
N_ N_ 0.450277 0.892872 0.123457 0.0
N_ N_ 0.378193 0.851806 0.19635 0.0
N_ N_ 0.420902 0.940701 0.2514 0.0
O_ O_ 0.465517 0.514997 0.217173 0.0
O_ O_ 0.410651 0.534476 0.250578 0.0
O_ O_ 0.362123 0.655721 0.134274 0.0
O_ O_ 0.532653 0.620132 0.13586 0.0
O_ O_ 0.59232 0.551058 0.172831 0.0
O_ O_ 0.645557 0.510599 0.184197 0.0
O_ O_ 0.620206 0.605994 0.059287 0.0
O_ O_ 0.454156 0.569983 0.0492879 0.0
O_ O_ 0.534483 0.735003 0.467173 0.0
O_ O_ 0.589349 0.715524 0.000578323 0.0
O_ O_ 0.637877 0.594279 0.384274 0.0
O_ O_ 0.467347 0.629868 0.38586 0.0
O_ O_ 0.40768 0.698942 0.422831 0.0
O_ O_ 0.354443 0.739401 0.434197 0.0
O_ O_ 0.379794 0.644007 0.309287 0.0
O_ O_ 0.545844 0.680017 0.299288 0.0
O_ O_ 0.534483 0.985003 0.282827 0.0
O_ O_ 0.589349 0.965524 0.249422 0.0
O_ O_ 0.637877 0.844279 0.365726 0.0
O_ O_ 0.467347 0.879868 0.36414 0.0
O_ O_ 0.40768 0.948942 0.327169 0.0
O_ O_ 0.354443 0.989401 0.315803 0.0
O_ O_ 0.379794 0.894007 0.440713 0.0
O_ O_ 0.545844 0.930017 0.450712 0.0
O_ O_ 0.465517 0.764997 0.032827 0.0
O_ O_ 0.410651 0.784476 0.499422 0.0
O_ O_ 0.362123 0.905721 0.115726 0.0
O_ O_ 0.532653 0.870132 0.11414 0.0
O_ O_ 0.59232 0.801058 0.0771694 0.0
O_ O_ 0.645557 0.760599 0.0658027 0.0
O_ O_ 0.620206 0.855994 0.190713 0.0
O_ O_ 0.454156 0.819983 0.200712 0.0
Cd Cd 0.563502 0.511719 0.71467 0.0
Cd Cd 0.436498 0.738281 0.96467 0.0
Cd Cd 0.436498 0.988281 0.78533 0.0
Cd Cd 0.563502 0.761719 0.53533 0.0
H_ H_ 0.351294 0.579745 0.725897 0.0
H_ H_ 0.668104 0.629013 0.690298 0.0
H_ H_ 0.498892 0.565178 0.679747 0.0
H_ H_ 0.500395 0.758413 0.597662 0.0
H_ H_ 0.455477 0.714791 0.632561 0.0
H_ H_ 0.499181 0.629969 0.574356 0.0
H_ H_ 0.53885 0.675225 0.5391 0.0
H_ H_ 0.402979 0.52026 0.654784 0.0
H_ H_ 0.455113 0.536785 0.608694 0.0
H_ H_ 0.604364 0.574876 0.618937 0.0
H_ H_ 0.445366 0.653364 0.96672 0.0
H_ H_ 0.423131 0.600974 0.498905 0.0
H_ H_ 0.360554 0.670902 0.564808 0.0
H_ H_ 0.381605 0.721767 0.530389 0.0
H_ H_ 0.648706 0.670255 0.975897 0.0
H_ H_ 0.331896 0.620987 0.940298 0.0
H_ H_ 0.501108 0.684822 0.929747 0.0
H_ H_ 0.499605 0.991587 0.847662 0.0
H_ H_ 0.544523 0.535209 0.882561 0.0
H_ H_ 0.500819 0.620031 0.824356 0.0
H_ H_ 0.46115 0.574775 0.7891 0.0
H_ H_ 0.597021 0.72974 0.904784 0.0
H_ H_ 0.544887 0.713215 0.858694 0.0
H_ H_ 0.395636 0.675124 0.868937 0.0
H_ H_ 0.554634 0.596636 0.71672 0.0
H_ H_ 0.576869 0.649026 0.748905 0.0
H_ H_ 0.639446 0.579098 0.814808 0.0
H_ H_ 0.618395 0.528233 0.780389 0.0
H_ H_ 0.648706 0.920255 0.774103 0.0
H_ H_ 0.331896 0.870987 0.809702 0.0
H_ H_ 0.501108 0.934822 0.820253 0.0
H_ H_ 0.499605 0.741587 0.902338 0.0
H_ H_ 0.544523 0.785209 0.867439 0.0
H_ H_ 0.500819 0.870031 0.925644 0.0
H_ H_ 0.46115 0.824775 0.9609 0.0
H_ H_ 0.597021 0.97974 0.845216 0.0
H_ H_ 0.544887 0.963215 0.891306 0.0
H_ H_ 0.395636 0.925124 0.881063 0.0
H_ H_ 0.554634 0.846636 0.53328 0.0
H_ H_ 0.576869 0.899026 0.00109454 0.0
H_ H_ 0.639446 0.829098 0.935192 0.0
H_ H_ 0.618395 0.778233 0.969611 0.0
H_ H_ 0.351294 0.829745 0.524103 0.0
H_ H_ 0.668104 0.879013 0.559702 0.0
H_ H_ 0.498892 0.815178 0.570253 0.0
H_ H_ 0.500395 0.508413 0.652338 0.0
H_ H_ 0.455477 0.964791 0.617439 0.0
H_ H_ 0.499181 0.879969 0.675644 0.0
H_ H_ 0.53885 0.925225 0.7109 0.0
H_ H_ 0.402979 0.77026 0.595216 0.0
H_ H_ 0.455113 0.786785 0.641306 0.0
H_ H_ 0.604364 0.824876 0.631063 0.0
H_ H_ 0.445366 0.903364 0.78328 0.0
H_ H_ 0.423131 0.850974 0.751095 0.0
H_ H_ 0.360554 0.920902 0.685192 0.0
H_ H_ 0.381605 0.971767 0.719611 0.0
C_ C_ 0.43868 0.539998 0.727052 0.0
C_ C_ 0.42932 0.570771 0.707483 0.0
C_ C_ 0.381853 0.588822 0.710019 0.0
C_ C_ 0.372918 0.617352 0.690542 0.0
C_ C_ 0.414437 0.63051 0.671853 0.0
C_ C_ 0.4608 0.613273 0.669669 0.0
C_ C_ 0.466734 0.581574 0.685219 0.0
C_ C_ 0.481436 0.620719 0.641473 0.0
C_ C_ 0.408884 0.648598 0.645016 0.0
C_ C_ 0.497609 0.730298 0.592092 0.0
C_ C_ 0.472407 0.705623 0.611814 0.0
C_ C_ 0.471479 0.669032 0.605206 0.0
C_ C_ 0.49651 0.658066 0.579027 0.0
C_ C_ 0.51981 0.683656 0.559394 0.0
C_ C_ 0.634705 0.53623 0.667278 0.0
C_ C_ 0.665401 0.544726 0.639664 0.0
C_ C_ 0.384406 0.533773 0.636493 0.0
C_ C_ 0.413353 0.541779 0.610068 0.0
C_ C_ 0.387771 0.557109 0.585956 0.0
C_ C_ 0.669945 0.568029 0.588977 0.0
C_ C_ 0.642605 0.56379 0.616129 0.0
C_ C_ 0.413024 0.579403 0.564863 0.0
C_ C_ 0.666112 0.596676 0.56969 0.0
C_ C_ 0.430381 0.657225 0.989051 0.0
C_ C_ 0.416542 0.62753 0.507008 0.0
C_ C_ 0.392127 0.632198 0.534798 0.0
C_ C_ 0.380366 0.666644 0.543627 0.0
C_ C_ 0.394123 0.695648 0.524758 0.0
C_ C_ 0.56132 0.710002 0.977052 0.0
C_ C_ 0.57068 0.679229 0.957483 0.0
C_ C_ 0.618147 0.661178 0.960019 0.0
C_ C_ 0.627082 0.632648 0.940542 0.0
C_ C_ 0.585563 0.61949 0.921853 0.0
C_ C_ 0.5392 0.636727 0.919669 0.0
C_ C_ 0.533266 0.668426 0.935219 0.0
C_ C_ 0.518564 0.629281 0.891473 0.0
C_ C_ 0.591116 0.601402 0.895016 0.0
C_ C_ 0.502391 0.519702 0.842092 0.0
C_ C_ 0.527593 0.544377 0.861814 0.0
C_ C_ 0.528521 0.580968 0.855206 0.0
C_ C_ 0.50349 0.591934 0.829027 0.0
C_ C_ 0.48019 0.566344 0.809394 0.0
C_ C_ 0.365295 0.71377 0.917278 0.0
C_ C_ 0.334599 0.705274 0.889664 0.0
C_ C_ 0.615594 0.716227 0.886493 0.0
C_ C_ 0.586647 0.708221 0.860068 0.0
C_ C_ 0.612229 0.692891 0.835956 0.0
C_ C_ 0.330055 0.681971 0.838977 0.0
C_ C_ 0.357395 0.68621 0.866129 0.0
C_ C_ 0.586976 0.670597 0.814863 0.0
C_ C_ 0.333888 0.653324 0.81969 0.0
C_ C_ 0.569619 0.592775 0.739051 0.0
C_ C_ 0.583458 0.62247 0.757008 0.0
C_ C_ 0.607873 0.617802 0.784798 0.0
C_ C_ 0.619634 0.583356 0.793627 0.0
C_ C_ 0.605877 0.554352 0.774758 0.0
C_ C_ 0.56132 0.960002 0.772948 0.0
C_ C_ 0.57068 0.929229 0.792517 0.0
C_ C_ 0.618147 0.911178 0.789981 0.0
C_ C_ 0.627082 0.882648 0.809458 0.0
C_ C_ 0.585563 0.86949 0.828147 0.0
C_ C_ 0.5392 0.886727 0.830331 0.0
C_ C_ 0.533266 0.918426 0.814781 0.0
C_ C_ 0.518564 0.879281 0.858527 0.0
C_ C_ 0.591116 0.851402 0.854984 0.0
C_ C_ 0.502391 0.769702 0.907908 0.0
C_ C_ 0.527593 0.794377 0.888186 0.0
C_ C_ 0.528521 0.830968 0.894794 0.0
C_ C_ 0.50349 0.841934 0.920973 0.0
C_ C_ 0.48019 0.816344 0.940606 0.0
C_ C_ 0.365295 0.96377 0.832722 0.0
C_ C_ 0.334599 0.955274 0.860336 0.0
C_ C_ 0.615594 0.966227 0.863507 0.0
C_ C_ 0.586647 0.958221 0.889932 0.0
C_ C_ 0.612229 0.942891 0.914044 0.0
C_ C_ 0.330055 0.931971 0.911023 0.0
C_ C_ 0.357395 0.93621 0.883871 0.0
C_ C_ 0.586976 0.920597 0.935137 0.0
C_ C_ 0.333888 0.903324 0.93031 0.0
C_ C_ 0.569619 0.842775 0.510949 0.0
C_ C_ 0.583458 0.87247 0.992992 0.0
C_ C_ 0.607873 0.867802 0.965202 0.0
C_ C_ 0.619634 0.833356 0.956373 0.0
C_ C_ 0.605877 0.804352 0.975242 0.0
C_ C_ 0.43868 0.789998 0.522948 0.0
C_ C_ 0.42932 0.820771 0.542517 0.0
C_ C_ 0.381853 0.838822 0.539981 0.0
C_ C_ 0.372918 0.867352 0.559458 0.0
C_ C_ 0.414437 0.88051 0.578147 0.0
C_ C_ 0.4608 0.863273 0.580331 0.0
C_ C_ 0.466734 0.831574 0.564781 0.0
C_ C_ 0.481436 0.870719 0.608527 0.0
C_ C_ 0.408884 0.898598 0.604984 0.0
C_ C_ 0.497609 0.980298 0.657908 0.0
C_ C_ 0.472407 0.955623 0.638186 0.0
C_ C_ 0.471479 0.919032 0.644794 0.0
C_ C_ 0.49651 0.908066 0.670973 0.0
C_ C_ 0.51981 0.933656 0.690606 0.0
C_ C_ 0.634705 0.78623 0.582722 0.0
C_ C_ 0.665401 0.794726 0.610336 0.0
C_ C_ 0.384406 0.783773 0.613507 0.0
C_ C_ 0.413353 0.791779 0.639932 0.0
C_ C_ 0.387771 0.807109 0.664044 0.0
C_ C_ 0.669945 0.818029 0.661023 0.0
C_ C_ 0.642605 0.81379 0.633871 0.0
C_ C_ 0.413024 0.829403 0.685137 0.0
C_ C_ 0.666112 0.846676 0.68031 0.0
C_ C_ 0.430381 0.907225 0.760949 0.0
C_ C_ 0.416542 0.87753 0.742992 0.0
C_ C_ 0.392127 0.882198 0.715202 0.0
C_ C_ 0.380366 0.916644 0.706373 0.0
C_ C_ 0.394123 0.945648 0.725242 0.0
N_ N_ 0.519601 0.719087 0.566102 0.0
N_ N_ 0.450277 0.642872 0.626543 0.0
N_ N_ 0.378193 0.601806 0.55365 0.0
N_ N_ 0.420902 0.690701 0.4986 0.0
N_ N_ 0.480399 0.530913 0.816102 0.0
N_ N_ 0.549723 0.607128 0.876543 0.0
N_ N_ 0.621807 0.648194 0.80365 0.0
N_ N_ 0.579098 0.559299 0.7486 0.0
N_ N_ 0.480399 0.780913 0.933898 0.0
N_ N_ 0.549723 0.857128 0.873457 0.0
N_ N_ 0.621807 0.898194 0.94635 0.0
N_ N_ 0.579098 0.809299 0.00139979 0.0
N_ N_ 0.519601 0.969087 0.683898 0.0
N_ N_ 0.450277 0.892872 0.623457 0.0
N_ N_ 0.378193 0.851806 0.69635 0.0
N_ N_ 0.420902 0.940701 0.7514 0.0
O_ O_ 0.465517 0.514997 0.717173 0.0
O_ O_ 0.410651 0.534476 0.750578 0.0
O_ O_ 0.362123 0.655721 0.634274 0.0
O_ O_ 0.532653 0.620132 0.63586 0.0
O_ O_ 0.59232 0.551058 0.672831 0.0
O_ O_ 0.645557 0.510599 0.684197 0.0
O_ O_ 0.620206 0.605994 0.559287 0.0
O_ O_ 0.454156 0.569983 0.549288 0.0
O_ O_ 0.534483 0.735003 0.967173 0.0
O_ O_ 0.589349 0.715524 0.500578 0.0
O_ O_ 0.637877 0.594279 0.884274 0.0
O_ O_ 0.467347 0.629868 0.88586 0.0
O_ O_ 0.40768 0.698942 0.922831 0.0
O_ O_ 0.354443 0.739401 0.934197 0.0
O_ O_ 0.379794 0.644007 0.809287 0.0
O_ O_ 0.545844 0.680017 0.799288 0.0
O_ O_ 0.534483 0.985003 0.782827 0.0
O_ O_ 0.589349 0.965524 0.749422 0.0
O_ O_ 0.637877 0.844279 0.865726 0.0
O_ O_ 0.467347 0.879868 0.86414 0.0
O_ O_ 0.40768 0.948942 0.827169 0.0
O_ O_ 0.354443 0.989401 0.815803 0.0
O_ O_ 0.379794 0.894007 0.940713 0.0
O_ O_ 0.545844 0.930017 0.950712 0.0
O_ O_ 0.465517 0.764997 0.532827 0.0
O_ O_ 0.410651 0.784476 0.999422 0.0
O_ O_ 0.362123 0.905721 0.615726 0.0
O_ O_ 0.532653 0.870132 0.61414 0.0
O_ O_ 0.59232 0.801058 0.577169 0.0
O_ O_ 0.645557 0.760599 0.565803 0.0
O_ O_ 0.620206 0.855994 0.690713 0.0
O_ O_ 0.454156 0.819983 0.700712 0.0
Cd Cd 0.896835 0.0117191 0.21467 0.0
Cd Cd 0.769832 0.238281 0.46467 0.0
Cd Cd 0.769832 0.488281 0.28533 0.0
Cd Cd 0.896835 0.261719 0.0353296 0.0
H_ H_ 0.684627 0.0797452 0.225897 0.0
H_ H_ 0.00143726 0.129013 0.190298 0.0
H_ H_ 0.832225 0.0651784 0.179747 0.0
H_ H_ 0.833728 0.258413 0.0976618 0.0
H_ H_ 0.78881 0.214791 0.132561 0.0
H_ H_ 0.832514 0.129969 0.0743557 0.0
H_ H_ 0.872183 0.175225 0.0391002 0.0
H_ H_ 0.736312 0.0202596 0.154784 0.0
H_ H_ 0.788447 0.0367846 0.108694 0.0
H_ H_ 0.937697 0.0748764 0.118937 0.0
H_ H_ 0.778699 0.153364 0.46672 0.0
H_ H_ 0.756465 0.100974 0.998905 0.0
H_ H_ 0.693888 0.170902 0.0648075 0.0
H_ H_ 0.714938 0.221767 0.0303887 0.0
H_ H_ 0.98204 0.170255 0.475897 0.0
H_ H_ 0.665229 0.120987 0.440298 0.0
H_ H_ 0.834442 0.184822 0.429747 0.0
H_ H_ 0.832939 0.491587 0.347662 0.0
H_ H_ 0.877857 0.035209 0.382561 0.0
H_ H_ 0.834153 0.120031 0.324356 0.0
H_ H_ 0.794483 0.0747749 0.2891 0.0
H_ H_ 0.930355 0.22974 0.404784 0.0
H_ H_ 0.87822 0.213215 0.358694 0.0
H_ H_ 0.728969 0.175124 0.368937 0.0
H_ H_ 0.887968 0.0966362 0.21672 0.0
H_ H_ 0.910202 0.149026 0.248905 0.0
H_ H_ 0.972779 0.0790981 0.314808 0.0
H_ H_ 0.951728 0.0282328 0.280389 0.0
H_ H_ 0.98204 0.420255 0.274103 0.0
H_ H_ 0.665229 0.370987 0.309702 0.0
H_ H_ 0.834442 0.434822 0.320253 0.0
H_ H_ 0.832939 0.241587 0.402338 0.0
H_ H_ 0.877857 0.285209 0.367439 0.0
H_ H_ 0.834153 0.370031 0.425644 0.0
H_ H_ 0.794483 0.324775 0.4609 0.0
H_ H_ 0.930355 0.47974 0.345216 0.0
H_ H_ 0.87822 0.463215 0.391306 0.0
H_ H_ 0.728969 0.425124 0.381063 0.0
H_ H_ 0.887968 0.346636 0.0332805 0.0
H_ H_ 0.910202 0.399026 0.501095 0.0
H_ H_ 0.972779 0.329098 0.435192 0.0
H_ H_ 0.951728 0.278233 0.469611 0.0
H_ H_ 0.684627 0.329745 0.0241033 0.0
H_ H_ 0.00143727 0.379013 0.0597022 0.0
H_ H_ 0.832225 0.315178 0.0702528 0.0
H_ H_ 0.833728 0.00841344 0.152338 0.0
H_ H_ 0.78881 0.464791 0.117439 0.0
H_ H_ 0.832514 0.379969 0.175644 0.0
H_ H_ 0.872183 0.425225 0.2109 0.0
H_ H_ 0.736312 0.27026 0.0952161 0.0
H_ H_ 0.788447 0.286785 0.141306 0.0
H_ H_ 0.937697 0.324876 0.131063 0.0
H_ H_ 0.778699 0.403364 0.28328 0.0
H_ H_ 0.756465 0.350974 0.251095 0.0
H_ H_ 0.693888 0.420902 0.185192 0.0
H_ H_ 0.714938 0.471767 0.219611 0.0
C_ C_ 0.772014 0.0399984 0.227052 0.0
C_ C_ 0.762653 0.0707715 0.207483 0.0
C_ C_ 0.715187 0.0888219 0.210019 0.0
C_ C_ 0.706251 0.117352 0.190542 0.0
C_ C_ 0.747771 0.13051 0.171853 0.0
C_ C_ 0.794133 0.113273 0.169669 0.0
C_ C_ 0.800068 0.0815736 0.185219 0.0
C_ C_ 0.814769 0.120719 0.141473 0.0
C_ C_ 0.742217 0.148598 0.145016 0.0
C_ C_ 0.830943 0.230298 0.0920919 0.0
C_ C_ 0.80574 0.205623 0.111814 0.0
C_ C_ 0.804812 0.169032 0.105206 0.0
C_ C_ 0.829843 0.158066 0.0790275 0.0
C_ C_ 0.853144 0.183656 0.0593936 0.0
C_ C_ 0.968039 0.0362297 0.167278 0.0
C_ C_ 0.998734 0.0447258 0.139664 0.0
C_ C_ 0.717739 0.0337728 0.136493 0.0
C_ C_ 0.746686 0.0417792 0.110068 0.0
C_ C_ 0.721104 0.0571085 0.0859562 0.0
C_ C_ 0.00327862 0.0680289 0.0889766 0.0
C_ C_ 0.975938 0.0637899 0.116129 0.0
C_ C_ 0.746357 0.0794027 0.0648629 0.0
C_ C_ 0.999445 0.0966762 0.0696897 0.0
C_ C_ 0.763715 0.157225 0.489051 0.0
C_ C_ 0.749875 0.12753 0.00700845 0.0
C_ C_ 0.725461 0.132198 0.0347975 0.0
C_ C_ 0.713699 0.166644 0.0436273 0.0
C_ C_ 0.727456 0.195648 0.0247575 0.0
C_ C_ 0.894653 0.210002 0.477052 0.0
C_ C_ 0.904014 0.179229 0.457483 0.0
C_ C_ 0.95148 0.161178 0.460019 0.0
C_ C_ 0.960415 0.132648 0.440542 0.0
C_ C_ 0.918896 0.11949 0.421853 0.0
C_ C_ 0.872534 0.136727 0.419669 0.0
C_ C_ 0.866599 0.168426 0.435219 0.0
C_ C_ 0.851898 0.129281 0.391473 0.0
C_ C_ 0.924449 0.101402 0.395016 0.0
C_ C_ 0.835724 0.0197024 0.342092 0.0
C_ C_ 0.860926 0.044377 0.361814 0.0
C_ C_ 0.861855 0.0809681 0.355206 0.0
C_ C_ 0.836823 0.0919345 0.329027 0.0
C_ C_ 0.813523 0.0663441 0.309394 0.0
C_ C_ 0.698628 0.21377 0.417278 0.0
C_ C_ 0.667933 0.205274 0.389664 0.0
C_ C_ 0.948927 0.216227 0.386493 0.0
C_ C_ 0.91998 0.208221 0.360068 0.0
C_ C_ 0.945562 0.192891 0.335956 0.0
C_ C_ 0.663388 0.181971 0.338977 0.0
C_ C_ 0.690729 0.18621 0.366129 0.0
C_ C_ 0.92031 0.170597 0.314863 0.0
C_ C_ 0.667221 0.153324 0.31969 0.0
C_ C_ 0.902952 0.0927748 0.239051 0.0
C_ C_ 0.916792 0.12247 0.257008 0.0
C_ C_ 0.941206 0.117802 0.284798 0.0
C_ C_ 0.952968 0.0833558 0.293627 0.0
C_ C_ 0.93921 0.0543523 0.274758 0.0
C_ C_ 0.894653 0.460002 0.272948 0.0
C_ C_ 0.904014 0.429229 0.292517 0.0
C_ C_ 0.95148 0.411178 0.289981 0.0
C_ C_ 0.960415 0.382648 0.309458 0.0
C_ C_ 0.918896 0.36949 0.328147 0.0
C_ C_ 0.872534 0.386727 0.330331 0.0
C_ C_ 0.866599 0.418426 0.314781 0.0
C_ C_ 0.851898 0.379281 0.358527 0.0
C_ C_ 0.924449 0.351402 0.354984 0.0
C_ C_ 0.835724 0.269702 0.407908 0.0
C_ C_ 0.860926 0.294377 0.388186 0.0
C_ C_ 0.861855 0.330968 0.394794 0.0
C_ C_ 0.836823 0.341934 0.420973 0.0
C_ C_ 0.813523 0.316344 0.440606 0.0
C_ C_ 0.698628 0.46377 0.332722 0.0
C_ C_ 0.667933 0.455274 0.360336 0.0
C_ C_ 0.948927 0.466227 0.363507 0.0
C_ C_ 0.91998 0.458221 0.389932 0.0
C_ C_ 0.945562 0.442891 0.414044 0.0
C_ C_ 0.663388 0.431971 0.411023 0.0
C_ C_ 0.690729 0.43621 0.383871 0.0
C_ C_ 0.92031 0.420597 0.435137 0.0
C_ C_ 0.667221 0.403324 0.43031 0.0
C_ C_ 0.902952 0.342775 0.010949 0.0
C_ C_ 0.916792 0.37247 0.492992 0.0
C_ C_ 0.941206 0.367802 0.465202 0.0
C_ C_ 0.952968 0.333356 0.456373 0.0
C_ C_ 0.93921 0.304352 0.475242 0.0
C_ C_ 0.772014 0.289998 0.0229477 0.0
C_ C_ 0.762653 0.320771 0.0425173 0.0
C_ C_ 0.715187 0.338822 0.0399812 0.0
C_ C_ 0.706251 0.367352 0.0594584 0.0
C_ C_ 0.747771 0.38051 0.0781469 0.0
C_ C_ 0.794133 0.363273 0.0803307 0.0
C_ C_ 0.800068 0.331574 0.0647813 0.0
C_ C_ 0.814769 0.370719 0.108527 0.0
C_ C_ 0.742217 0.398598 0.104984 0.0
C_ C_ 0.830943 0.480298 0.157908 0.0
C_ C_ 0.80574 0.455623 0.138186 0.0
C_ C_ 0.804812 0.419032 0.144794 0.0
C_ C_ 0.829843 0.408066 0.170973 0.0
C_ C_ 0.853144 0.433656 0.190606 0.0
C_ C_ 0.968039 0.28623 0.0827219 0.0
C_ C_ 0.998734 0.294726 0.110336 0.0
C_ C_ 0.717739 0.283773 0.113507 0.0
C_ C_ 0.746686 0.291779 0.139932 0.0
C_ C_ 0.721104 0.307109 0.164044 0.0
C_ C_ 0.00327863 0.318029 0.161023 0.0
C_ C_ 0.975938 0.31379 0.133871 0.0
C_ C_ 0.746357 0.329403 0.185137 0.0
C_ C_ 0.999445 0.346676 0.18031 0.0
C_ C_ 0.763715 0.407225 0.260949 0.0
C_ C_ 0.749875 0.37753 0.242992 0.0
C_ C_ 0.725461 0.382198 0.215202 0.0
C_ C_ 0.713699 0.416644 0.206373 0.0
C_ C_ 0.727456 0.445648 0.225242 0.0
N_ N_ 0.852935 0.219087 0.066102 0.0
N_ N_ 0.783611 0.142872 0.126543 0.0
N_ N_ 0.711527 0.101806 0.0536496 0.0
N_ N_ 0.754235 0.190701 0.9986 0.0
N_ N_ 0.813732 0.030913 0.316102 0.0
N_ N_ 0.883056 0.107128 0.376543 0.0
N_ N_ 0.95514 0.148194 0.30365 0.0
N_ N_ 0.912431 0.0592986 0.2486 0.0
N_ N_ 0.813732 0.280913 0.433898 0.0
N_ N_ 0.883056 0.357128 0.373457 0.0
N_ N_ 0.95514 0.398194 0.44635 0.0
N_ N_ 0.912431 0.309299 0.5014 0.0
N_ N_ 0.852935 0.469087 0.183898 0.0
N_ N_ 0.783611 0.392872 0.123457 0.0
N_ N_ 0.711527 0.351806 0.19635 0.0
N_ N_ 0.754235 0.440701 0.2514 0.0
O_ O_ 0.79885 0.0149975 0.217173 0.0
O_ O_ 0.743984 0.0344756 0.250578 0.0
O_ O_ 0.695457 0.155721 0.134274 0.0
O_ O_ 0.865986 0.120132 0.13586 0.0
O_ O_ 0.925653 0.0510577 0.172831 0.0
O_ O_ 0.978891 0.0105991 0.184197 0.0
O_ O_ 0.95354 0.105994 0.059287 0.0
O_ O_ 0.78749 0.0699826 0.0492879 0.0
O_ O_ 0.867816 0.235003 0.467173 0.0
O_ O_ 0.922682 0.215524 0.000578323 0.0
O_ O_ 0.97121 0.094279 0.384274 0.0
O_ O_ 0.80068 0.129868 0.38586 0.0
O_ O_ 0.741013 0.198942 0.422831 0.0
O_ O_ 0.687776 0.239401 0.434197 0.0
O_ O_ 0.713127 0.144006 0.309287 0.0
O_ O_ 0.879177 0.180017 0.299288 0.0
O_ O_ 0.867816 0.485003 0.282827 0.0
O_ O_ 0.922682 0.465524 0.249422 0.0
O_ O_ 0.97121 0.344279 0.365726 0.0
O_ O_ 0.80068 0.379868 0.36414 0.0
O_ O_ 0.741013 0.448942 0.327169 0.0
O_ O_ 0.687776 0.489401 0.315803 0.0
O_ O_ 0.713127 0.394006 0.440713 0.0
O_ O_ 0.879177 0.430017 0.450712 0.0
O_ O_ 0.79885 0.264997 0.032827 0.0
O_ O_ 0.743984 0.284476 0.499422 0.0
O_ O_ 0.695457 0.405721 0.115726 0.0
O_ O_ 0.865986 0.370132 0.11414 0.0
O_ O_ 0.925653 0.301058 0.0771694 0.0
O_ O_ 0.978891 0.260599 0.0658027 0.0
O_ O_ 0.95354 0.355994 0.190713 0.0
O_ O_ 0.78749 0.319983 0.200712 0.0
Cd Cd 0.896835 0.0117191 0.71467 0.0
Cd Cd 0.769832 0.238281 0.96467 0.0
Cd Cd 0.769832 0.488281 0.78533 0.0
Cd Cd 0.896835 0.261719 0.53533 0.0
H_ H_ 0.684627 0.0797452 0.725897 0.0
H_ H_ 0.00143726 0.129013 0.690298 0.0
H_ H_ 0.832225 0.0651784 0.679747 0.0
H_ H_ 0.833728 0.258413 0.597662 0.0
H_ H_ 0.78881 0.214791 0.632561 0.0
H_ H_ 0.832514 0.129969 0.574356 0.0
H_ H_ 0.872183 0.175225 0.5391 0.0
H_ H_ 0.736312 0.0202596 0.654784 0.0
H_ H_ 0.788447 0.0367846 0.608694 0.0
H_ H_ 0.937697 0.0748764 0.618937 0.0
H_ H_ 0.778699 0.153364 0.96672 0.0
H_ H_ 0.756465 0.100974 0.498905 0.0
H_ H_ 0.693888 0.170902 0.564808 0.0
H_ H_ 0.714938 0.221767 0.530389 0.0
H_ H_ 0.98204 0.170255 0.975897 0.0
H_ H_ 0.665229 0.120987 0.940298 0.0
H_ H_ 0.834442 0.184822 0.929747 0.0
H_ H_ 0.832939 0.491587 0.847662 0.0
H_ H_ 0.877857 0.035209 0.882561 0.0
H_ H_ 0.834153 0.120031 0.824356 0.0
H_ H_ 0.794483 0.0747749 0.7891 0.0
H_ H_ 0.930355 0.22974 0.904784 0.0
H_ H_ 0.87822 0.213215 0.858694 0.0
H_ H_ 0.728969 0.175124 0.868937 0.0
H_ H_ 0.887968 0.0966362 0.71672 0.0
H_ H_ 0.910202 0.149026 0.748905 0.0
H_ H_ 0.972779 0.0790981 0.814808 0.0
H_ H_ 0.951728 0.0282328 0.780389 0.0
H_ H_ 0.98204 0.420255 0.774103 0.0
H_ H_ 0.665229 0.370987 0.809702 0.0
H_ H_ 0.834442 0.434822 0.820253 0.0
H_ H_ 0.832939 0.241587 0.902338 0.0
H_ H_ 0.877857 0.285209 0.867439 0.0
H_ H_ 0.834153 0.370031 0.925644 0.0
H_ H_ 0.794483 0.324775 0.9609 0.0
H_ H_ 0.930355 0.47974 0.845216 0.0
H_ H_ 0.87822 0.463215 0.891306 0.0
H_ H_ 0.728969 0.425124 0.881063 0.0
H_ H_ 0.887968 0.346636 0.53328 0.0
H_ H_ 0.910202 0.399026 0.00109454 0.0
H_ H_ 0.972779 0.329098 0.935192 0.0
H_ H_ 0.951728 0.278233 0.969611 0.0
H_ H_ 0.684627 0.329745 0.524103 0.0
H_ H_ 0.00143727 0.379013 0.559702 0.0
H_ H_ 0.832225 0.315178 0.570253 0.0
H_ H_ 0.833728 0.00841344 0.652338 0.0
H_ H_ 0.78881 0.464791 0.617439 0.0
H_ H_ 0.832514 0.379969 0.675644 0.0
H_ H_ 0.872183 0.425225 0.7109 0.0
H_ H_ 0.736312 0.27026 0.595216 0.0
H_ H_ 0.788447 0.286785 0.641306 0.0
H_ H_ 0.937697 0.324876 0.631063 0.0
H_ H_ 0.778699 0.403364 0.78328 0.0
H_ H_ 0.756465 0.350974 0.751095 0.0
H_ H_ 0.693888 0.420902 0.685192 0.0
H_ H_ 0.714938 0.471767 0.719611 0.0
C_ C_ 0.772014 0.0399984 0.727052 0.0
C_ C_ 0.762653 0.0707715 0.707483 0.0
C_ C_ 0.715187 0.0888219 0.710019 0.0
C_ C_ 0.706251 0.117352 0.690542 0.0
C_ C_ 0.747771 0.13051 0.671853 0.0
C_ C_ 0.794133 0.113273 0.669669 0.0
C_ C_ 0.800068 0.0815736 0.685219 0.0
C_ C_ 0.814769 0.120719 0.641473 0.0
C_ C_ 0.742217 0.148598 0.645016 0.0
C_ C_ 0.830943 0.230298 0.592092 0.0
C_ C_ 0.80574 0.205623 0.611814 0.0
C_ C_ 0.804812 0.169032 0.605206 0.0
C_ C_ 0.829843 0.158066 0.579027 0.0
C_ C_ 0.853144 0.183656 0.559394 0.0
C_ C_ 0.968039 0.0362297 0.667278 0.0
C_ C_ 0.998734 0.0447258 0.639664 0.0
C_ C_ 0.717739 0.0337728 0.636493 0.0
C_ C_ 0.746686 0.0417792 0.610068 0.0
C_ C_ 0.721104 0.0571085 0.585956 0.0
C_ C_ 0.00327862 0.0680289 0.588977 0.0
C_ C_ 0.975938 0.0637899 0.616129 0.0
C_ C_ 0.746357 0.0794027 0.564863 0.0
C_ C_ 0.999445 0.0966762 0.56969 0.0
C_ C_ 0.763715 0.157225 0.989051 0.0
C_ C_ 0.749875 0.12753 0.507008 0.0
C_ C_ 0.725461 0.132198 0.534798 0.0
C_ C_ 0.713699 0.166644 0.543627 0.0
C_ C_ 0.727456 0.195648 0.524758 0.0
C_ C_ 0.894653 0.210002 0.977052 0.0
C_ C_ 0.904014 0.179229 0.957483 0.0
C_ C_ 0.95148 0.161178 0.960019 0.0
C_ C_ 0.960415 0.132648 0.940542 0.0
C_ C_ 0.918896 0.11949 0.921853 0.0
C_ C_ 0.872534 0.136727 0.919669 0.0
C_ C_ 0.866599 0.168426 0.935219 0.0
C_ C_ 0.851898 0.129281 0.891473 0.0
C_ C_ 0.924449 0.101402 0.895016 0.0
C_ C_ 0.835724 0.0197024 0.842092 0.0
C_ C_ 0.860926 0.044377 0.861814 0.0
C_ C_ 0.861855 0.0809681 0.855206 0.0
C_ C_ 0.836823 0.0919345 0.829027 0.0
C_ C_ 0.813523 0.0663441 0.809394 0.0
C_ C_ 0.698628 0.21377 0.917278 0.0
C_ C_ 0.667933 0.205274 0.889664 0.0
C_ C_ 0.948927 0.216227 0.886493 0.0
C_ C_ 0.91998 0.208221 0.860068 0.0
C_ C_ 0.945562 0.192891 0.835956 0.0
C_ C_ 0.663388 0.181971 0.838977 0.0
C_ C_ 0.690729 0.18621 0.866129 0.0
C_ C_ 0.92031 0.170597 0.814863 0.0
C_ C_ 0.667221 0.153324 0.81969 0.0
C_ C_ 0.902952 0.0927748 0.739051 0.0
C_ C_ 0.916792 0.12247 0.757008 0.0
C_ C_ 0.941206 0.117802 0.784798 0.0
C_ C_ 0.952968 0.0833558 0.793627 0.0
C_ C_ 0.93921 0.0543523 0.774758 0.0
C_ C_ 0.894653 0.460002 0.772948 0.0
C_ C_ 0.904014 0.429229 0.792517 0.0
C_ C_ 0.95148 0.411178 0.789981 0.0
C_ C_ 0.960415 0.382648 0.809458 0.0
C_ C_ 0.918896 0.36949 0.828147 0.0
C_ C_ 0.872534 0.386727 0.830331 0.0
C_ C_ 0.866599 0.418426 0.814781 0.0
C_ C_ 0.851898 0.379281 0.858527 0.0
C_ C_ 0.924449 0.351402 0.854984 0.0
C_ C_ 0.835724 0.269702 0.907908 0.0
C_ C_ 0.860926 0.294377 0.888186 0.0
C_ C_ 0.861855 0.330968 0.894794 0.0
C_ C_ 0.836823 0.341934 0.920973 0.0
C_ C_ 0.813523 0.316344 0.940606 0.0
C_ C_ 0.698628 0.46377 0.832722 0.0
C_ C_ 0.667933 0.455274 0.860336 0.0
C_ C_ 0.948927 0.466227 0.863507 0.0
C_ C_ 0.91998 0.458221 0.889932 0.0
C_ C_ 0.945562 0.442891 0.914044 0.0
C_ C_ 0.663388 0.431971 0.911023 0.0
C_ C_ 0.690729 0.43621 0.883871 0.0
C_ C_ 0.92031 0.420597 0.935137 0.0
C_ C_ 0.667221 0.403324 0.93031 0.0
C_ C_ 0.902952 0.342775 0.510949 0.0
C_ C_ 0.916792 0.37247 0.992992 0.0
C_ C_ 0.941206 0.367802 0.965202 0.0
C_ C_ 0.952968 0.333356 0.956373 0.0
C_ C_ 0.93921 0.304352 0.975242 0.0
C_ C_ 0.772014 0.289998 0.522948 0.0
C_ C_ 0.762653 0.320771 0.542517 0.0
C_ C_ 0.715187 0.338822 0.539981 0.0
C_ C_ 0.706251 0.367352 0.559458 0.0
C_ C_ 0.747771 0.38051 0.578147 0.0
C_ C_ 0.794133 0.363273 0.580331 0.0
C_ C_ 0.800068 0.331574 0.564781 0.0
C_ C_ 0.814769 0.370719 0.608527 0.0
C_ C_ 0.742217 0.398598 0.604984 0.0
C_ C_ 0.830943 0.480298 0.657908 0.0
C_ C_ 0.80574 0.455623 0.638186 0.0
C_ C_ 0.804812 0.419032 0.644794 0.0
C_ C_ 0.829843 0.408066 0.670973 0.0
C_ C_ 0.853144 0.433656 0.690606 0.0
C_ C_ 0.968039 0.28623 0.582722 0.0
C_ C_ 0.998734 0.294726 0.610336 0.0
C_ C_ 0.717739 0.283773 0.613507 0.0
C_ C_ 0.746686 0.291779 0.639932 0.0
C_ C_ 0.721104 0.307109 0.664044 0.0
C_ C_ 0.00327863 0.318029 0.661023 0.0
C_ C_ 0.975938 0.31379 0.633871 0.0
C_ C_ 0.746357 0.329403 0.685137 0.0
C_ C_ 0.999445 0.346676 0.68031 0.0
C_ C_ 0.763715 0.407225 0.760949 0.0
C_ C_ 0.749875 0.37753 0.742992 0.0
C_ C_ 0.725461 0.382198 0.715202 0.0
C_ C_ 0.713699 0.416644 0.706373 0.0
C_ C_ 0.727456 0.445648 0.725242 0.0
N_ N_ 0.852935 0.219087 0.566102 0.0
N_ N_ 0.783611 0.142872 0.626543 0.0
N_ N_ 0.711527 0.101806 0.55365 0.0
N_ N_ 0.754235 0.190701 0.4986 0.0
N_ N_ 0.813732 0.030913 0.816102 0.0
N_ N_ 0.883056 0.107128 0.876543 0.0
N_ N_ 0.95514 0.148194 0.80365 0.0
N_ N_ 0.912431 0.0592986 0.7486 0.0
N_ N_ 0.813732 0.280913 0.933898 0.0
N_ N_ 0.883056 0.357128 0.873457 0.0
N_ N_ 0.95514 0.398194 0.94635 0.0
N_ N_ 0.912431 0.309299 0.00139979 0.0
N_ N_ 0.852935 0.469087 0.683898 0.0
N_ N_ 0.783611 0.392872 0.623457 0.0
N_ N_ 0.711527 0.351806 0.69635 0.0
N_ N_ 0.754235 0.440701 0.7514 0.0
O_ O_ 0.79885 0.0149975 0.717173 0.0
O_ O_ 0.743984 0.0344756 0.750578 0.0
O_ O_ 0.695457 0.155721 0.634274 0.0
O_ O_ 0.865986 0.120132 0.63586 0.0
O_ O_ 0.925653 0.0510577 0.672831 0.0
O_ O_ 0.978891 0.0105991 0.684197 0.0
O_ O_ 0.95354 0.105994 0.559287 0.0
O_ O_ 0.78749 0.0699826 0.549288 0.0
O_ O_ 0.867816 0.235003 0.967173 0.0
O_ O_ 0.922682 0.215524 0.500578 0.0
O_ O_ 0.97121 0.094279 0.884274 0.0
O_ O_ 0.80068 0.129868 0.88586 0.0
O_ O_ 0.741013 0.198942 0.922831 0.0
O_ O_ 0.687776 0.239401 0.934197 0.0
O_ O_ 0.713127 0.144006 0.809287 0.0
O_ O_ 0.879177 0.180017 0.799288 0.0
O_ O_ 0.867816 0.485003 0.782827 0.0
O_ O_ 0.922682 0.465524 0.749422 0.0
O_ O_ 0.97121 0.344279 0.865726 0.0
O_ O_ 0.80068 0.379868 0.86414 0.0
O_ O_ 0.741013 0.448942 0.827169 0.0
O_ O_ 0.687776 0.489401 0.815803 0.0
O_ O_ 0.713127 0.394006 0.940713 0.0
O_ O_ 0.879177 0.430017 0.950712 0.0
O_ O_ 0.79885 0.264997 0.532827 0.0
O_ O_ 0.743984 0.284476 0.999422 0.0
O_ O_ 0.695457 0.405721 0.615726 0.0
O_ O_ 0.865986 0.370132 0.61414 0.0
O_ O_ 0.925653 0.301058 0.577169 0.0
O_ O_ 0.978891 0.260599 0.565803 0.0
O_ O_ 0.95354 0.355994 0.690713 0.0
O_ O_ 0.78749 0.319983 0.700712 0.0
Cd Cd 0.896835 0.511719 0.21467 0.0
Cd Cd 0.769832 0.738281 0.46467 0.0
Cd Cd 0.769832 0.988281 0.28533 0.0
Cd Cd 0.896835 0.761719 0.0353296 0.0
H_ H_ 0.684627 0.579745 0.225897 0.0
H_ H_ 0.00143727 0.629013 0.190298 0.0
H_ H_ 0.832225 0.565178 0.179747 0.0
H_ H_ 0.833728 0.758413 0.0976618 0.0
H_ H_ 0.78881 0.714791 0.132561 0.0
H_ H_ 0.832514 0.629969 0.0743557 0.0
H_ H_ 0.872183 0.675225 0.0391002 0.0
H_ H_ 0.736312 0.52026 0.154784 0.0
H_ H_ 0.788447 0.536785 0.108694 0.0
H_ H_ 0.937697 0.574876 0.118937 0.0
H_ H_ 0.778699 0.653364 0.46672 0.0
H_ H_ 0.756465 0.600974 0.998905 0.0
H_ H_ 0.693888 0.670902 0.0648075 0.0
H_ H_ 0.714938 0.721767 0.0303887 0.0
H_ H_ 0.98204 0.670255 0.475897 0.0
H_ H_ 0.665229 0.620987 0.440298 0.0
H_ H_ 0.834442 0.684822 0.429747 0.0
H_ H_ 0.832939 0.991587 0.347662 0.0
H_ H_ 0.877857 0.535209 0.382561 0.0
H_ H_ 0.834153 0.620031 0.324356 0.0
H_ H_ 0.794483 0.574775 0.2891 0.0
H_ H_ 0.930355 0.72974 0.404784 0.0
H_ H_ 0.87822 0.713215 0.358694 0.0
H_ H_ 0.728969 0.675124 0.368937 0.0
H_ H_ 0.887968 0.596636 0.21672 0.0
H_ H_ 0.910202 0.649026 0.248905 0.0
H_ H_ 0.972779 0.579098 0.314808 0.0
H_ H_ 0.951728 0.528233 0.280389 0.0
H_ H_ 0.98204 0.920255 0.274103 0.0
H_ H_ 0.665229 0.870987 0.309702 0.0
H_ H_ 0.834442 0.934822 0.320253 0.0
H_ H_ 0.832939 0.741587 0.402338 0.0
H_ H_ 0.877857 0.785209 0.367439 0.0
H_ H_ 0.834153 0.870031 0.425644 0.0
H_ H_ 0.794483 0.824775 0.4609 0.0
H_ H_ 0.930355 0.97974 0.345216 0.0
H_ H_ 0.87822 0.963215 0.391306 0.0
H_ H_ 0.728969 0.925124 0.381063 0.0
H_ H_ 0.887968 0.846636 0.0332805 0.0
H_ H_ 0.910202 0.899026 0.501095 0.0
H_ H_ 0.972779 0.829098 0.435192 0.0
H_ H_ 0.951728 0.778233 0.469611 0.0
H_ H_ 0.684627 0.829745 0.0241033 0.0
H_ H_ 0.00143726 0.879013 0.0597022 0.0
H_ H_ 0.832225 0.815178 0.0702528 0.0
H_ H_ 0.833728 0.508413 0.152338 0.0
H_ H_ 0.78881 0.964791 0.117439 0.0
H_ H_ 0.832514 0.879969 0.175644 0.0
H_ H_ 0.872183 0.925225 0.2109 0.0
H_ H_ 0.736312 0.77026 0.0952161 0.0
H_ H_ 0.788447 0.786785 0.141306 0.0
H_ H_ 0.937697 0.824876 0.131063 0.0
H_ H_ 0.778699 0.903364 0.28328 0.0
H_ H_ 0.756465 0.850974 0.251095 0.0
H_ H_ 0.693888 0.920902 0.185192 0.0
H_ H_ 0.714938 0.971767 0.219611 0.0
C_ C_ 0.772014 0.539998 0.227052 0.0
C_ C_ 0.762653 0.570771 0.207483 0.0
C_ C_ 0.715187 0.588822 0.210019 0.0
C_ C_ 0.706251 0.617352 0.190542 0.0
C_ C_ 0.747771 0.63051 0.171853 0.0
C_ C_ 0.794133 0.613273 0.169669 0.0
C_ C_ 0.800068 0.581574 0.185219 0.0
C_ C_ 0.814769 0.620719 0.141473 0.0
C_ C_ 0.742217 0.648598 0.145016 0.0
C_ C_ 0.830943 0.730298 0.0920919 0.0
C_ C_ 0.80574 0.705623 0.111814 0.0
C_ C_ 0.804812 0.669032 0.105206 0.0
C_ C_ 0.829843 0.658066 0.0790275 0.0
C_ C_ 0.853144 0.683656 0.0593936 0.0
C_ C_ 0.968039 0.53623 0.167278 0.0
C_ C_ 0.998734 0.544726 0.139664 0.0
C_ C_ 0.717739 0.533773 0.136493 0.0
C_ C_ 0.746686 0.541779 0.110068 0.0
C_ C_ 0.721104 0.557109 0.0859562 0.0
C_ C_ 0.00327863 0.568029 0.0889766 0.0
C_ C_ 0.975938 0.56379 0.116129 0.0
C_ C_ 0.746357 0.579403 0.0648629 0.0
C_ C_ 0.999445 0.596676 0.0696897 0.0
C_ C_ 0.763715 0.657225 0.489051 0.0
C_ C_ 0.749875 0.62753 0.00700845 0.0
C_ C_ 0.725461 0.632198 0.0347975 0.0
C_ C_ 0.713699 0.666644 0.0436273 0.0
C_ C_ 0.727456 0.695648 0.0247575 0.0
C_ C_ 0.894653 0.710002 0.477052 0.0
C_ C_ 0.904014 0.679229 0.457483 0.0
C_ C_ 0.95148 0.661178 0.460019 0.0
C_ C_ 0.960415 0.632648 0.440542 0.0
C_ C_ 0.918896 0.61949 0.421853 0.0
C_ C_ 0.872534 0.636727 0.419669 0.0
C_ C_ 0.866599 0.668426 0.435219 0.0
C_ C_ 0.851898 0.629281 0.391473 0.0
C_ C_ 0.924449 0.601402 0.395016 0.0
C_ C_ 0.835724 0.519702 0.342092 0.0
C_ C_ 0.860926 0.544377 0.361814 0.0
C_ C_ 0.861855 0.580968 0.355206 0.0
C_ C_ 0.836823 0.591934 0.329027 0.0
C_ C_ 0.813523 0.566344 0.309394 0.0
C_ C_ 0.698628 0.71377 0.417278 0.0
C_ C_ 0.667933 0.705274 0.389664 0.0
C_ C_ 0.948927 0.716227 0.386493 0.0
C_ C_ 0.91998 0.708221 0.360068 0.0
C_ C_ 0.945562 0.692891 0.335956 0.0
C_ C_ 0.663388 0.681971 0.338977 0.0
C_ C_ 0.690729 0.68621 0.366129 0.0
C_ C_ 0.92031 0.670597 0.314863 0.0
C_ C_ 0.667221 0.653324 0.31969 0.0
C_ C_ 0.902952 0.592775 0.239051 0.0
C_ C_ 0.916792 0.62247 0.257008 0.0
C_ C_ 0.941206 0.617802 0.284798 0.0
C_ C_ 0.952968 0.583356 0.293627 0.0
C_ C_ 0.93921 0.554352 0.274758 0.0
C_ C_ 0.894653 0.960002 0.272948 0.0
C_ C_ 0.904014 0.929229 0.292517 0.0
C_ C_ 0.95148 0.911178 0.289981 0.0
C_ C_ 0.960415 0.882648 0.309458 0.0
C_ C_ 0.918896 0.86949 0.328147 0.0
C_ C_ 0.872534 0.886727 0.330331 0.0
C_ C_ 0.866599 0.918426 0.314781 0.0
C_ C_ 0.851898 0.879281 0.358527 0.0
C_ C_ 0.924449 0.851402 0.354984 0.0
C_ C_ 0.835724 0.769702 0.407908 0.0
C_ C_ 0.860926 0.794377 0.388186 0.0
C_ C_ 0.861855 0.830968 0.394794 0.0
C_ C_ 0.836823 0.841934 0.420973 0.0
C_ C_ 0.813523 0.816344 0.440606 0.0
C_ C_ 0.698628 0.96377 0.332722 0.0
C_ C_ 0.667933 0.955274 0.360336 0.0
C_ C_ 0.948927 0.966227 0.363507 0.0
C_ C_ 0.91998 0.958221 0.389932 0.0
C_ C_ 0.945562 0.942891 0.414044 0.0
C_ C_ 0.663388 0.931971 0.411023 0.0
C_ C_ 0.690729 0.93621 0.383871 0.0
C_ C_ 0.92031 0.920597 0.435137 0.0
C_ C_ 0.667221 0.903324 0.43031 0.0
C_ C_ 0.902952 0.842775 0.010949 0.0
C_ C_ 0.916792 0.87247 0.492992 0.0
C_ C_ 0.941206 0.867802 0.465202 0.0
C_ C_ 0.952968 0.833356 0.456373 0.0
C_ C_ 0.93921 0.804352 0.475242 0.0
C_ C_ 0.772014 0.789998 0.0229477 0.0
C_ C_ 0.762653 0.820771 0.0425173 0.0
C_ C_ 0.715187 0.838822 0.0399812 0.0
C_ C_ 0.706251 0.867352 0.0594584 0.0
C_ C_ 0.747771 0.88051 0.0781469 0.0
C_ C_ 0.794133 0.863273 0.0803307 0.0
C_ C_ 0.800068 0.831574 0.0647812 0.0
C_ C_ 0.814769 0.870719 0.108527 0.0
C_ C_ 0.742217 0.898598 0.104984 0.0
C_ C_ 0.830943 0.980298 0.157908 0.0
C_ C_ 0.80574 0.955623 0.138186 0.0
C_ C_ 0.804812 0.919032 0.144794 0.0
C_ C_ 0.829843 0.908066 0.170973 0.0
C_ C_ 0.853144 0.933656 0.190606 0.0
C_ C_ 0.968039 0.78623 0.0827219 0.0
C_ C_ 0.998734 0.794726 0.110336 0.0
C_ C_ 0.717739 0.783773 0.113507 0.0
C_ C_ 0.746686 0.791779 0.139932 0.0
C_ C_ 0.721104 0.807109 0.164044 0.0
C_ C_ 0.00327862 0.818029 0.161023 0.0
C_ C_ 0.975938 0.81379 0.133871 0.0
C_ C_ 0.746357 0.829403 0.185137 0.0
C_ C_ 0.999445 0.846676 0.18031 0.0
C_ C_ 0.763715 0.907225 0.260949 0.0
C_ C_ 0.749875 0.87753 0.242992 0.0
C_ C_ 0.725461 0.882198 0.215202 0.0
C_ C_ 0.713699 0.916644 0.206373 0.0
C_ C_ 0.727456 0.945648 0.225242 0.0
N_ N_ 0.852935 0.719087 0.066102 0.0
N_ N_ 0.783611 0.642872 0.126543 0.0
N_ N_ 0.711527 0.601806 0.0536496 0.0
N_ N_ 0.754235 0.690701 0.9986 0.0
N_ N_ 0.813732 0.530913 0.316102 0.0
N_ N_ 0.883056 0.607128 0.376543 0.0
N_ N_ 0.95514 0.648194 0.30365 0.0
N_ N_ 0.912431 0.559299 0.2486 0.0
N_ N_ 0.813732 0.780913 0.433898 0.0
N_ N_ 0.883056 0.857128 0.373457 0.0
N_ N_ 0.95514 0.898194 0.44635 0.0
N_ N_ 0.912431 0.809299 0.5014 0.0
N_ N_ 0.852935 0.969087 0.183898 0.0
N_ N_ 0.783611 0.892872 0.123457 0.0
N_ N_ 0.711527 0.851806 0.19635 0.0
N_ N_ 0.754235 0.940701 0.2514 0.0
O_ O_ 0.79885 0.514997 0.217173 0.0
O_ O_ 0.743984 0.534476 0.250578 0.0
O_ O_ 0.695457 0.655721 0.134274 0.0
O_ O_ 0.865986 0.620132 0.13586 0.0
O_ O_ 0.925653 0.551058 0.172831 0.0
O_ O_ 0.978891 0.510599 0.184197 0.0
O_ O_ 0.95354 0.605994 0.059287 0.0
O_ O_ 0.78749 0.569983 0.0492879 0.0
O_ O_ 0.867816 0.735003 0.467173 0.0
O_ O_ 0.922682 0.715524 0.000578323 0.0
O_ O_ 0.97121 0.594279 0.384274 0.0
O_ O_ 0.80068 0.629868 0.38586 0.0
O_ O_ 0.741013 0.698942 0.422831 0.0
O_ O_ 0.687776 0.739401 0.434197 0.0
O_ O_ 0.713127 0.644007 0.309287 0.0
O_ O_ 0.879177 0.680017 0.299288 0.0
O_ O_ 0.867816 0.985003 0.282827 0.0
O_ O_ 0.922682 0.965524 0.249422 0.0
O_ O_ 0.97121 0.844279 0.365726 0.0
O_ O_ 0.80068 0.879868 0.36414 0.0
O_ O_ 0.741013 0.948942 0.327169 0.0
O_ O_ 0.687776 0.989401 0.315803 0.0
O_ O_ 0.713127 0.894007 0.440713 0.0
O_ O_ 0.879177 0.930017 0.450712 0.0
O_ O_ 0.79885 0.764997 0.032827 0.0
O_ O_ 0.743984 0.784476 0.499422 0.0
O_ O_ 0.695457 0.905721 0.115726 0.0
O_ O_ 0.865986 0.870132 0.11414 0.0
O_ O_ 0.925653 0.801058 0.0771694 0.0
O_ O_ 0.978891 0.760599 0.0658027 0.0
O_ O_ 0.95354 0.855994 0.190713 0.0
O_ O_ 0.78749 0.819983 0.200712 0.0
Cd Cd 0.896835 0.511719 0.71467 0.0
Cd Cd 0.769832 0.738281 0.96467 0.0
Cd Cd 0.769832 0.988281 0.78533 0.0
Cd Cd 0.896835 0.761719 0.53533 0.0
H_ H_ 0.684627 0.579745 0.725897 0.0
H_ H_ 0.00143727 0.629013 0.690298 0.0
H_ H_ 0.832225 0.565178 0.679747 0.0
H_ H_ 0.833728 0.758413 0.597662 0.0
H_ H_ 0.78881 0.714791 0.632561 0.0
H_ H_ 0.832514 0.629969 0.574356 0.0
H_ H_ 0.872183 0.675225 0.5391 0.0
H_ H_ 0.736312 0.52026 0.654784 0.0
H_ H_ 0.788447 0.536785 0.608694 0.0
H_ H_ 0.937697 0.574876 0.618937 0.0
H_ H_ 0.778699 0.653364 0.96672 0.0
H_ H_ 0.756465 0.600974 0.498905 0.0
H_ H_ 0.693888 0.670902 0.564808 0.0
H_ H_ 0.714938 0.721767 0.530389 0.0
H_ H_ 0.98204 0.670255 0.975897 0.0
H_ H_ 0.665229 0.620987 0.940298 0.0
H_ H_ 0.834442 0.684822 0.929747 0.0
H_ H_ 0.832939 0.991587 0.847662 0.0
H_ H_ 0.877857 0.535209 0.882561 0.0
H_ H_ 0.834153 0.620031 0.824356 0.0
H_ H_ 0.794483 0.574775 0.7891 0.0
H_ H_ 0.930355 0.72974 0.904784 0.0
H_ H_ 0.87822 0.713215 0.858694 0.0
H_ H_ 0.728969 0.675124 0.868937 0.0
H_ H_ 0.887968 0.596636 0.71672 0.0
H_ H_ 0.910202 0.649026 0.748905 0.0
H_ H_ 0.972779 0.579098 0.814808 0.0
H_ H_ 0.951728 0.528233 0.780389 0.0
H_ H_ 0.98204 0.920255 0.774103 0.0
H_ H_ 0.665229 0.870987 0.809702 0.0
H_ H_ 0.834442 0.934822 0.820253 0.0
H_ H_ 0.832939 0.741587 0.902338 0.0
H_ H_ 0.877857 0.785209 0.867439 0.0
H_ H_ 0.834153 0.870031 0.925644 0.0
H_ H_ 0.794483 0.824775 0.9609 0.0
H_ H_ 0.930355 0.97974 0.845216 0.0
H_ H_ 0.87822 0.963215 0.891306 0.0
H_ H_ 0.728969 0.925124 0.881063 0.0
H_ H_ 0.887968 0.846636 0.53328 0.0
H_ H_ 0.910202 0.899026 0.00109454 0.0
H_ H_ 0.972779 0.829098 0.935192 0.0
H_ H_ 0.951728 0.778233 0.969611 0.0
H_ H_ 0.684627 0.829745 0.524103 0.0
H_ H_ 0.00143726 0.879013 0.559702 0.0
H_ H_ 0.832225 0.815178 0.570253 0.0
H_ H_ 0.833728 0.508413 0.652338 0.0
H_ H_ 0.78881 0.964791 0.617439 0.0
H_ H_ 0.832514 0.879969 0.675644 0.0
H_ H_ 0.872183 0.925225 0.7109 0.0
H_ H_ 0.736312 0.77026 0.595216 0.0
H_ H_ 0.788447 0.786785 0.641306 0.0
H_ H_ 0.937697 0.824876 0.631063 0.0
H_ H_ 0.778699 0.903364 0.78328 0.0
H_ H_ 0.756465 0.850974 0.751095 0.0
H_ H_ 0.693888 0.920902 0.685192 0.0
H_ H_ 0.714938 0.971767 0.719611 0.0
C_ C_ 0.772014 0.539998 0.727052 0.0
C_ C_ 0.762653 0.570771 0.707483 0.0
C_ C_ 0.715187 0.588822 0.710019 0.0
C_ C_ 0.706251 0.617352 0.690542 0.0
C_ C_ 0.747771 0.63051 0.671853 0.0
C_ C_ 0.794133 0.613273 0.669669 0.0
C_ C_ 0.800068 0.581574 0.685219 0.0
C_ C_ 0.814769 0.620719 0.641473 0.0
C_ C_ 0.742217 0.648598 0.645016 0.0
C_ C_ 0.830943 0.730298 0.592092 0.0
C_ C_ 0.80574 0.705623 0.611814 0.0
C_ C_ 0.804812 0.669032 0.605206 0.0
C_ C_ 0.829843 0.658066 0.579027 0.0
C_ C_ 0.853144 0.683656 0.559394 0.0
C_ C_ 0.968039 0.53623 0.667278 0.0
C_ C_ 0.998734 0.544726 0.639664 0.0
C_ C_ 0.717739 0.533773 0.636493 0.0
C_ C_ 0.746686 0.541779 0.610068 0.0
C_ C_ 0.721104 0.557109 0.585956 0.0
C_ C_ 0.00327863 0.568029 0.588977 0.0
C_ C_ 0.975938 0.56379 0.616129 0.0
C_ C_ 0.746357 0.579403 0.564863 0.0
C_ C_ 0.999445 0.596676 0.56969 0.0
C_ C_ 0.763715 0.657225 0.989051 0.0
C_ C_ 0.749875 0.62753 0.507008 0.0
C_ C_ 0.725461 0.632198 0.534798 0.0
C_ C_ 0.713699 0.666644 0.543627 0.0
C_ C_ 0.727456 0.695648 0.524758 0.0
C_ C_ 0.894653 0.710002 0.977052 0.0
C_ C_ 0.904014 0.679229 0.957483 0.0
C_ C_ 0.95148 0.661178 0.960019 0.0
C_ C_ 0.960415 0.632648 0.940542 0.0
C_ C_ 0.918896 0.61949 0.921853 0.0
C_ C_ 0.872534 0.636727 0.919669 0.0
C_ C_ 0.866599 0.668426 0.935219 0.0
C_ C_ 0.851898 0.629281 0.891473 0.0
C_ C_ 0.924449 0.601402 0.895016 0.0
C_ C_ 0.835724 0.519702 0.842092 0.0
C_ C_ 0.860926 0.544377 0.861814 0.0
C_ C_ 0.861855 0.580968 0.855206 0.0
C_ C_ 0.836823 0.591934 0.829027 0.0
C_ C_ 0.813523 0.566344 0.809394 0.0
C_ C_ 0.698628 0.71377 0.917278 0.0
C_ C_ 0.667933 0.705274 0.889664 0.0
C_ C_ 0.948927 0.716227 0.886493 0.0
C_ C_ 0.91998 0.708221 0.860068 0.0
C_ C_ 0.945562 0.692891 0.835956 0.0
C_ C_ 0.663388 0.681971 0.838977 0.0
C_ C_ 0.690729 0.68621 0.866129 0.0
C_ C_ 0.92031 0.670597 0.814863 0.0
C_ C_ 0.667221 0.653324 0.81969 0.0
C_ C_ 0.902952 0.592775 0.739051 0.0
C_ C_ 0.916792 0.62247 0.757008 0.0
C_ C_ 0.941206 0.617802 0.784798 0.0
C_ C_ 0.952968 0.583356 0.793627 0.0
C_ C_ 0.93921 0.554352 0.774758 0.0
C_ C_ 0.894653 0.960002 0.772948 0.0
C_ C_ 0.904014 0.929229 0.792517 0.0
C_ C_ 0.95148 0.911178 0.789981 0.0
C_ C_ 0.960415 0.882648 0.809458 0.0
C_ C_ 0.918896 0.86949 0.828147 0.0
C_ C_ 0.872534 0.886727 0.830331 0.0
C_ C_ 0.866599 0.918426 0.814781 0.0
C_ C_ 0.851898 0.879281 0.858527 0.0
C_ C_ 0.924449 0.851402 0.854984 0.0
C_ C_ 0.835724 0.769702 0.907908 0.0
C_ C_ 0.860926 0.794377 0.888186 0.0
C_ C_ 0.861855 0.830968 0.894794 0.0
C_ C_ 0.836823 0.841934 0.920973 0.0
C_ C_ 0.813523 0.816344 0.940606 0.0
C_ C_ 0.698628 0.96377 0.832722 0.0
C_ C_ 0.667933 0.955274 0.860336 0.0
C_ C_ 0.948927 0.966227 0.863507 0.0
C_ C_ 0.91998 0.958221 0.889932 0.0
C_ C_ 0.945562 0.942891 0.914044 0.0
C_ C_ 0.663388 0.931971 0.911023 0.0
C_ C_ 0.690729 0.93621 0.883871 0.0
C_ C_ 0.92031 0.920597 0.935137 0.0
C_ C_ 0.667221 0.903324 0.93031 0.0
C_ C_ 0.902952 0.842775 0.510949 0.0
C_ C_ 0.916792 0.87247 0.992992 0.0
C_ C_ 0.941206 0.867802 0.965202 0.0
C_ C_ 0.952968 0.833356 0.956373 0.0
C_ C_ 0.93921 0.804352 0.975242 0.0
C_ C_ 0.772014 0.789998 0.522948 0.0
C_ C_ 0.762653 0.820771 0.542517 0.0
C_ C_ 0.715187 0.838822 0.539981 0.0
C_ C_ 0.706251 0.867352 0.559458 0.0
C_ C_ 0.747771 0.88051 0.578147 0.0
C_ C_ 0.794133 0.863273 0.580331 0.0
C_ C_ 0.800068 0.831574 0.564781 0.0
C_ C_ 0.814769 0.870719 0.608527 0.0
C_ C_ 0.742217 0.898598 0.604984 0.0
C_ C_ 0.830943 0.980298 0.657908 0.0
C_ C_ 0.80574 0.955623 0.638186 0.0
C_ C_ 0.804812 0.919032 0.644794 0.0
C_ C_ 0.829843 0.908066 0.670973 0.0
C_ C_ 0.853144 0.933656 0.690606 0.0
C_ C_ 0.968039 0.78623 0.582722 0.0
C_ C_ 0.998734 0.794726 0.610336 0.0
C_ C_ 0.717739 0.783773 0.613507 0.0
C_ C_ 0.746686 0.791779 0.639932 0.0
C_ C_ 0.721104 0.807109 0.664044 0.0
C_ C_ 0.00327862 0.818029 0.661023 0.0
C_ C_ 0.975938 0.81379 0.633871 0.0
C_ C_ 0.746357 0.829403 0.685137 0.0
C_ C_ 0.999445 0.846676 0.68031 0.0
C_ C_ 0.763715 0.907225 0.760949 0.0
C_ C_ 0.749875 0.87753 0.742992 0.0
C_ C_ 0.725461 0.882198 0.715202 0.0
C_ C_ 0.713699 0.916644 0.706373 0.0
C_ C_ 0.727456 0.945648 0.725242 0.0
N_ N_ 0.852935 0.719087 0.566102 0.0
N_ N_ 0.783611 0.642872 0.626543 0.0
N_ N_ 0.711527 0.601806 0.55365 0.0
N_ N_ 0.754235 0.690701 0.4986 0.0
N_ N_ 0.813732 0.530913 0.816102 0.0
N_ N_ 0.883056 0.607128 0.876543 0.0
N_ N_ 0.95514 0.648194 0.80365 0.0
N_ N_ 0.912431 0.559299 0.7486 0.0
N_ N_ 0.813732 0.780913 0.933898 0.0
N_ N_ 0.883056 0.857128 0.873457 0.0
N_ N_ 0.95514 0.898194 0.94635 0.0
N_ N_ 0.912431 0.809299 0.00139979 0.0
N_ N_ 0.852935 0.969087 0.683898 0.0
N_ N_ 0.783611 0.892872 0.623457 0.0
N_ N_ 0.711527 0.851806 0.69635 0.0
N_ N_ 0.754235 0.940701 0.7514 0.0
O_ O_ 0.79885 0.514997 0.717173 0.0
O_ O_ 0.743984 0.534476 0.750578 0.0
O_ O_ 0.695457 0.655721 0.634274 0.0
O_ O_ 0.865986 0.620132 0.63586 0.0
O_ O_ 0.925653 0.551058 0.672831 0.0
O_ O_ 0.978891 0.510599 0.684197 0.0
O_ O_ 0.95354 0.605994 0.559287 0.0
O_ O_ 0.78749 0.569983 0.549288 0.0
O_ O_ 0.867816 0.735003 0.967173 0.0
O_ O_ 0.922682 0.715524 0.500578 0.0
O_ O_ 0.97121 0.594279 0.884274 0.0
O_ O_ 0.80068 0.629868 0.88586 0.0
O_ O_ 0.741013 0.698942 0.922831 0.0
O_ O_ 0.687776 0.739401 0.934197 0.0
O_ O_ 0.713127 0.644007 0.809287 0.0
O_ O_ 0.879177 0.680017 0.799288 0.0
O_ O_ 0.867816 0.985003 0.782827 0.0
O_ O_ 0.922682 0.965524 0.749422 0.0
O_ O_ 0.97121 0.844279 0.865726 0.0
O_ O_ 0.80068 0.879868 0.86414 0.0
O_ O_ 0.741013 0.948942 0.827169 0.0
O_ O_ 0.687776 0.989401 0.815803 0.0
O_ O_ 0.713127 0.894007 0.940713 0.0
O_ O_ 0.879177 0.930017 0.950712 0.0
O_ O_ 0.79885 0.764997 0.532827 0.0
O_ O_ 0.743984 0.784476 0.999422 0.0
O_ O_ 0.695457 0.905721 0.615726 0.0
O_ O_ 0.865986 0.870132 0.61414 0.0
O_ O_ 0.925653 0.801058 0.577169 0.0
O_ O_ 0.978891 0.760599 0.565803 0.0
O_ O_ 0.95354 0.855994 0.690713 0.0
O_ O_ 0.78749 0.819983 0.700712 0.0
