_cell_length_a 25.179
_cell_length_b 37.484199844079754
_cell_length_c 44.4702
_cell_angle_alpha 90.0
_cell_angle_beta 90.0
_cell_angle_gamma 94.03100043039683
_symmetry_space_group_name_H-M         'P 1'
_symmetry_Int_Tables_number            1
loop_
_symmetry_equiv_pos_as_xyz
   'x, y, z'
                         
loop_
_atom_site_label
_atom_site_type_symbol
_atom_site_fract_x 
_atom_site_fract_y
_atom_site_fract_z
_atom_site_charge
Cd Cd 0.230192 0.0157952 0.213715 0.0
Cd Cd 0.101721 0.23939 0.462965 0.0
Cd Cd 0.0999295 0.487209 0.286472 0.0
Cd Cd 0.229569 0.261777 0.0366197 0.0
H_ H_ 0.0342742 0.0884024 0.234099 0.0
H_ H_ 0.372302 0.151769 0.217294 0.0
H_ H_ 0.161159 0.0543894 0.174528 0.0
H_ H_ 0.16726 0.260668 0.0942568 0.0
H_ H_ 0.134901 0.216946 0.136046 0.0
H_ H_ 0.182665 0.129872 0.0824388 0.0
H_ H_ 0.217241 0.170971 0.0442513 0.0
H_ H_ 0.0630631 0.0145562 0.152118 0.0
H_ H_ 0.124299 0.0364802 0.108471 0.0
H_ H_ 0.271641 0.0806282 0.118581 0.0
H_ H_ 0.12452 0.155884 0.467804 0.0
H_ H_ 0.0806657 0.101638 0.996228 0.0
H_ H_ 0.0223405 0.169478 0.064791 0.0
H_ H_ 0.0469885 0.220398 0.0300891 0.0
H_ H_ 0.313465 0.172234 0.479276 0.0
H_ H_ 0.998554 0.119944 0.44112 0.0
H_ H_ 0.176737 0.190002 0.423755 0.0
H_ H_ 0.134097 0.476999 0.358417 0.0
H_ H_ 0.209936 0.0321277 0.388663 0.0
H_ H_ 0.192352 0.116534 0.322364 0.0
H_ H_ 0.151722 0.073227 0.28923 0.0
H_ H_ 0.25979 0.227467 0.400229 0.0
H_ H_ 0.211874 0.213097 0.352781 0.0
H_ H_ 0.0609023 0.174203 0.369335 0.0
H_ H_ 0.218146 0.10153 0.214578 0.0
H_ H_ 0.259407 0.158694 0.237551 0.0
H_ H_ 0.32659 0.0920005 0.303726 0.0
H_ H_ 0.29884 0.0399155 0.274769 0.0
H_ H_ 0.303451 0.425319 0.268341 0.0
H_ H_ 0.99308721 0.365999 0.304682 0.0
H_ H_ 0.163118 0.438459 0.317993 0.0
H_ H_ 0.133006 0.320374 0.450338 0.0
H_ H_ 0.175004 0.360888 0.411357 0.0
H_ H_ 0.185525 0.274702 0.351469 0.0
H_ H_ 0.148096 0.232307 0.391512 0.0
H_ H_ 0.279495 0.498251 0.351988 0.0
H_ H_ 0.226308 0.481527 0.398189 0.0
H_ H_ 0.0475492 0.412359 0.376151 0.0
H_ H_ 0.197613 0.340619 0.0242551 0.0
H_ H_ 0.243394 0.401558 0.501506 0.0
H_ H_ 0.283369 0.332344 0.430575 0.0
H_ H_ 0.283471 0.280642 0.467297 0.0
H_ H_ 0.0239143 0.334718 0.0221056 0.0
H_ H_ 0.343709 0.381446 0.0514881 0.0
H_ H_ 0.166898 0.314651 0.0708952 0.0
H_ H_ 0.186638 0.0157687 0.14407 0.0
H_ H_ 0.153697 0.475136 0.106277 0.0
H_ H_ 0.146495 0.395388 0.172749 0.0
H_ H_ 0.192059 0.433334 0.207396 0.0
H_ H_ 0.0701988 0.267097 0.0949067 0.0
H_ H_ 0.1203 0.28213 0.141971 0.0
H_ H_ 0.27261 0.329391 0.133454 0.0
H_ H_ 0.116386 0.403479 0.282633 0.0
H_ H_ 0.0994075 0.349034 0.250354 0.0
H_ H_ 0.0265152 0.420486 0.186564 0.0
H_ H_ 0.0539797 0.470106 0.217843 0.0
C_ C_ 0.110305 0.0419753 0.229179 0.0
C_ C_ 0.0992374 0.0704353 0.208406 0.0
C_ C_ 0.0532481 0.0912351 0.212255 0.0
C_ C_ 0.0384552 0.113491 0.189324 0.0
C_ C_ 0.0682446 0.116265 0.163764 0.0
C_ C_ 0.113728 0.0972897 0.160895 0.0
C_ C_ 0.128913 0.0733521 0.181797 0.0
C_ C_ 0.145405 0.115517 0.139619 0.0
C_ C_ 0.0780509 0.147442 0.146341 0.0
C_ C_ 0.168936 0.230478 0.0925574 0.0
C_ C_ 0.145897 0.206619 0.114012 0.0
C_ C_ 0.143316 0.170167 0.108259 0.0
C_ C_ 0.176357 0.158067 0.0844879 0.0
C_ C_ 0.198076 0.182098 0.0637325 0.0
C_ C_ 0.297286 0.0364666 0.164657 0.0
C_ C_ 0.326465 0.0437753 0.136438 0.0
C_ C_ 0.0494581 0.032337 0.136851 0.0
C_ C_ 0.0796609 0.0411958 0.111048 0.0
C_ C_ 0.0548093 0.0583361 0.0873236 0.0
C_ C_ 0.325978 0.0673282 0.0850991 0.0
C_ C_ 0.301535 0.0636759 0.112786 0.0
C_ C_ 0.0789525 0.0814694 0.0667604 0.0
C_ C_ 0.323564 0.0963915 0.0647043 0.0
C_ C_ 0.105009 0.160998 0.489579 0.0
C_ C_ 0.0742957 0.127523 0.00553693 0.0
C_ C_ 0.0576675 0.132979 0.0352273 0.0
C_ C_ 0.0439666 0.166105 0.0434941 0.0
C_ C_ 0.0549949 0.195459 0.0242807 0.0
C_ C_ 0.231323 0.215395 0.475922 0.0
C_ C_ 0.239253 0.183108 0.458533 0.0
C_ C_ 0.281213 0.162128 0.466093 0.0
C_ C_ 0.289299 0.131502 0.449524 0.0
C_ C_ 0.250276 0.118951 0.428379 0.0
C_ C_ 0.206953 0.138493 0.421688 0.0
C_ C_ 0.202648 0.172601 0.433964 0.0
C_ C_ 0.190053 0.128929 0.392724 0.0
C_ C_ 0.261046 0.099732 0.40253 0.0
C_ C_ 0.163657 0.0189134 0.34709 0.0
C_ C_ 0.195203 0.0425949 0.366036 0.0
C_ C_ 0.204359 0.0782407 0.358116 0.0
C_ C_ 0.186141 0.0894839 0.329343 0.0
C_ C_ 0.156404 0.064827 0.310623 0.0
C_ C_ 0.0317223 0.21046 0.417571 0.0
C_ C_ -0.0003609999999999447 0.200082 0.390652 0.0
C_ C_ 0.282038 0.215265 0.382366 0.0
C_ C_ 0.255116 0.208732 0.354315 0.0
C_ C_ 0.2845 0.198251 0.329747 0.0
C_ C_ 0.995816 0.180391 0.339067 0.0
C_ C_ 0.0209691 0.182802 0.367232 0.0
C_ C_ 0.266094 0.181647 0.303702 0.0
C_ C_ 0.000462772 0.151205 0.318343 0.0
C_ C_ 0.245315 0.10099 0.232472 0.0
C_ C_ 0.265128 0.132293 0.247394 0.0
C_ C_ 0.292524 0.130349 0.274074 0.0
C_ C_ 0.301656 0.0948753 0.285248 0.0
C_ C_ 0.282317 0.06438 0.26943 0.0
C_ C_ 0.223394 0.465966 0.269909 0.0
C_ C_ 0.233372 0.435391 0.291546 0.0
C_ C_ 0.279723 0.417254 0.286478 0.0
C_ C_ 0.291305 0.389161 0.305618 0.0
C_ C_ 0.259656 0.382679 0.331023 0.0
C_ C_ 0.215884 0.401107 0.335796 0.0
C_ C_ 0.201725 0.427656 0.316108 0.0
C_ C_ 0.180289 0.377795 0.35185 0.0
C_ C_ 0.249763 0.348121 0.342757 0.0
C_ C_ 0.146462 0.31102 0.429352 0.0
C_ C_ 0.169926 0.334001 0.407407 0.0
C_ C_ 0.182658 0.320648 0.379387 0.0
C_ C_ 0.173255 0.284137 0.373233 0.0
C_ C_ 0.153529 0.262161 0.396207 0.0
C_ C_ 0.0267387 0.461432 0.331468 0.0
C_ C_ -0.0005789999999999962 0.452928 0.359708 0.0
C_ C_ 0.292656 0.477251 0.367083 0.0
C_ C_ 0.263353 0.468429 0.393752 0.0
C_ C_ 0.287147 0.448976 0.416392 0.0
C_ C_ 0.996594 0.430715 0.409707 0.0
C_ C_ 0.0196103 0.432175 0.382042 0.0
C_ C_ 0.25942 0.426177 0.436915 0.0
C_ C_ 0.000394644 0.402335 0.429968 0.0
C_ C_ 0.217728 0.334713 0.00404138 0.0
C_ C_ 0.249461 0.374386 0.493015 0.0
C_ C_ 0.271296 0.370261 0.464608 0.0
C_ C_ 0.279065 0.335871 0.454227 0.0
C_ C_ 0.272325 0.307665 0.473383 0.0
C_ C_ 0.103804 0.290641 0.0243967 0.0
C_ C_ 0.0981285 0.323279 0.0428539 0.0
C_ C_ 0.0507057 0.34173 0.040022 0.0
C_ C_ 0.0399819 0.366507 0.0611425 0.0
C_ C_ 0.0743343 0.372228 0.0859686 0.0
C_ C_ 0.118813 0.353972 0.0892419 0.0
C_ C_ 0.132627 0.328799 0.0678287 0.0
C_ C_ 0.15277 0.375039 0.10807 0.0
C_ C_ 0.0814125 0.403872 0.101268 0.0
C_ C_ 0.177675 0.490996 0.151632 0.0
C_ C_ 0.158975 0.467205 0.128921 0.0
C_ C_ 0.149591 0.430935 0.136204 0.0
C_ C_ 0.166929 0.418405 0.163205 0.0
C_ C_ 0.191127 0.441527 0.183332 0.0
C_ C_ 0.300873 0.288596 0.0859228 0.0
C_ C_ 0.332573 0.298645 0.112734 0.0
C_ C_ 0.0533976 0.286015 0.111658 0.0
C_ C_ 0.0801522 0.291219 0.138643 0.0
C_ C_ 0.0540094 0.306449 0.163839 0.0
C_ C_ 0.33225 0.31919 0.164297 0.0
C_ C_ 0.308831 0.316825 0.135719 0.0
C_ C_ 0.0795927 0.327392 0.187352 0.0
C_ C_ 0.327377 0.347109 0.183389 0.0
C_ C_ 0.0970962 0.404708 0.261312 0.0
C_ C_ 0.0926978 0.376727 0.241355 0.0
C_ C_ 0.0593919 0.381091 0.215261 0.0
C_ C_ 0.0480054 0.415542 0.20627 0.0
C_ C_ 0.0557059 0.443483 0.227236 0.0
N_ N_ 0.189392 0.217804 0.0668113 0.0
N_ N_ 0.124044 0.145585 0.13096 0.0
N_ N_ 0.0447068 0.101504 0.053474 0.0
N_ N_ 0.0783457 0.190333 0.996491 0.0
N_ N_ 0.147005 0.0298096 0.319226 0.0
N_ N_ 0.222089 0.10355 0.381352 0.0
N_ N_ 0.304039 0.162623 0.292431 0.0
N_ N_ 0.252768 0.0677513 0.243699 0.0
N_ N_ 0.14536 0.275332 0.42488 0.0
N_ N_ 0.200409 0.346532 0.355451 0.0
N_ N_ 0.289234 0.401003 0.44613 0.0
N_ N_ 0.250444 0.312108 0.501655 0.0
N_ N_ 0.192523 0.477958 0.17892 0.0
N_ N_ 0.131362 0.406878 0.112591 0.0
N_ N_ 0.0438693 0.350692 0.197735 0.0
N_ N_ 0.0827248 0.437609 0.253018 0.0
O_ O_ 0.139979 0.0170418 0.220601 0.0
O_ O_ 0.0836242 0.0374966 0.254073 0.0
O_ O_ 0.0371531 0.163412 0.136233 0.0
O_ O_ 0.197756 0.114332 0.13949 0.0
O_ O_ 0.257413 0.0539766 0.169756 0.0
O_ O_ 0.311335 0.0151566 0.184949 0.0
O_ O_ 0.277064 0.106359 0.0553147 0.0
O_ O_ 0.127025 0.0772367 0.0554803 0.0
O_ O_ 0.201282 0.238656 0.465651 0.0
O_ O_ 0.254467 0.21379 0.00192519 0.0
O_ O_ 0.296989 0.0762137 0.400308 0.0
O_ O_ 0.141078 0.130716 0.382924 0.0
O_ O_ 0.0726191 0.193371 0.425834 0.0
O_ O_ 0.0194087 0.236621 0.433337 0.0
O_ O_ 0.0487486 0.144818 0.305761 0.0
O_ O_ 0.215675 0.176411 0.296922 0.0
O_ O_ 0.191812 0.489086 0.276795 0.0
O_ O_ 0.254324 0.47134 0.247878 0.0
O_ O_ 0.287491 0.330683 0.355547 0.0
O_ O_ 0.128045 0.381122 0.352706 0.0
O_ O_ 0.0652609 0.445117 0.32363 0.0
O_ O_ 0.0172966 0.489068 0.316002 0.0
O_ O_ 0.0477274 0.397247 0.441818 0.0
O_ O_ 0.208457 0.426992 0.442676 0.0
O_ O_ 0.129918 0.265882 0.0344601 0.0
O_ O_ 0.0816325 0.287677 0.496338 0.0
O_ O_ 0.0564694 0.432689 0.0957507 0.0
O_ O_ 0.203101 0.371815 0.107915 0.0
O_ O_ 0.257866 0.303244 0.0794131 0.0
O_ O_ 0.314435 0.264336 0.0689742 0.0
O_ O_ 0.281768 0.357974 0.192579 0.0
O_ O_ 0.130444 0.33717 0.184516 0.0
Cd Cd 0.228004 0.0134884 0.715637 0.0
Cd Cd 0.102486 0.242005 0.96466 0.0
Cd Cd 0.101171 0.489596 0.785165 0.0
Cd Cd 0.227304 0.265335 0.534438 0.0
H_ H_ 0.0172495 0.0861216 0.729668 0.0
H_ H_ 0.42884 0.165897 0.728421 0.0
H_ H_ 0.161546 0.0647304 0.680411 0.0
H_ H_ 0.177058 0.258019 0.600256 0.0
H_ H_ 0.13877 0.216303 0.637323 0.0
H_ H_ 0.166306 0.131888 0.57351 0.0
H_ H_ 0.198495 0.177549 0.538509 0.0
H_ H_ 0.0682333 0.0214497 0.653261 0.0
H_ H_ 0.119742 0.0311814 0.606222 0.0
H_ H_ 0.266216 0.0763235 0.622215 0.0
H_ H_ 0.0933796 0.151652 0.963006 0.0
H_ H_ 0.102086 0.10562 0.501191 0.0
H_ H_ 0.0241814 0.175442 0.563316 0.0
H_ H_ 0.0554519 0.226896 0.53025 0.0
H_ H_ 0.261449 0.145126 0.994718 0.0
H_ H_ 0.99867932 0.121157 0.939991 0.0
H_ H_ 0.195337 0.201348 0.918442 0.0
H_ H_ 0.152513 0.492547 0.848344 0.0
H_ H_ 0.163701 0.0384343 0.895991 0.0
H_ H_ 0.179653 0.117113 0.826808 0.0
H_ H_ 0.141103 0.0722984 0.790646 0.0
H_ H_ 0.275921 0.248208 0.890023 0.0
H_ H_ 0.226111 0.233455 0.844491 0.0
H_ H_ 0.068683 0.186777 0.865879 0.0
H_ H_ 0.23385 0.101805 0.707573 0.0
H_ H_ 0.257122 0.155578 0.737569 0.0
H_ H_ 0.289546 0.0894904 0.813041 0.0
H_ H_ 0.264945 0.0374597 0.781981 0.0
H_ H_ 0.240688 0.396096 0.742055 0.0
H_ H_ 0.0007399999999999629 0.376232 0.814095 0.0
H_ H_ 0.20553 0.44781 0.826479 0.0
H_ H_ 0.0586236 0.306697 0.933697 0.0
H_ H_ 0.0796492 0.352262 0.888802 0.0
H_ H_ 0.224868 0.299208 0.875687 0.0
H_ H_ 0.201131 0.259645 0.917665 0.0
H_ H_ 0.268914 0.486543 0.848172 0.0
H_ H_ 0.210194 0.468001 0.894462 0.0
H_ H_ 0.0608051 0.420542 0.880114 0.0
H_ H_ 0.230481 0.348387 0.533416 0.0
H_ H_ 0.196342 0.382328 0.981213 0.0
H_ H_ 0.31263 0.319193 0.936538 0.0
H_ H_ 0.286108 0.272174 0.973878 0.0
H_ H_ 0.0172087 0.331481 0.525536 0.0
H_ H_ 0.446826 0.415507 0.519187 0.0
H_ H_ 0.165154 0.318536 0.566275 0.0
H_ H_ 0.155867 0.0101211 0.654311 0.0
H_ H_ 0.140424 0.472619 0.609446 0.0
H_ H_ 0.146762 0.386751 0.674025 0.0
H_ H_ 0.185587 0.431893 0.709971 0.0
H_ H_ 0.0715779 0.274588 0.594595 0.0
H_ H_ 0.122979 0.287239 0.642177 0.0
H_ H_ 0.298377 0.353667 0.615981 0.0
H_ H_ 0.111948 0.403354 0.780499 0.0
H_ H_ 0.100071 0.354848 0.746521 0.0
H_ H_ 0.0281095 0.423023 0.683254 0.0
H_ H_ 0.0520195 0.472267 0.717871 0.0
C_ C_ 0.102083 0.0415782 0.729122 0.0
C_ C_ 0.0910191 0.0707125 0.708384 0.0
C_ C_ 0.0452524 0.0906719 0.711559 0.0
C_ C_ 0.0380271 0.119056 0.692219 0.0
C_ C_ 0.0804037 0.131978 0.67456 0.0
C_ C_ 0.125468 0.112981 0.671817 0.0
C_ C_ 0.128699 0.0804254 0.685656 0.0
C_ C_ 0.150175 0.121484 0.644698 0.0
C_ C_ 0.0792219 0.152322 0.647275 0.0
C_ C_ 0.175098 0.230534 0.594459 0.0
C_ C_ 0.153047 0.207158 0.615465 0.0
C_ C_ 0.145091 0.170364 0.607628 0.0
C_ C_ 0.163754 0.159351 0.578907 0.0
C_ C_ 0.186393 0.185477 0.559926 0.0
C_ C_ 0.292974 0.0331845 0.665584 0.0
C_ C_ 0.321399 0.0393791 0.637394 0.0
C_ C_ 0.0512231 0.0348453 0.636325 0.0
C_ C_ 0.0809978 0.0424507 0.610381 0.0
C_ C_ 0.0547678 0.0567778 0.585999 0.0
C_ C_ 0.334235 0.0749019 0.593889 0.0
C_ C_ 0.302193 0.0622147 0.616499 0.0
C_ C_ 0.0805353 0.0803943 0.565124 0.0
C_ C_ 0.333799 0.109763 0.583431 0.0
C_ C_ 0.0855132 0.156812 0.986826 0.0
C_ C_ 0.0895748 0.131734 0.507727 0.0
C_ C_ 0.0599964 0.134965 0.534788 0.0
C_ C_ 0.0485129 0.17048 0.543077 0.0
C_ C_ 0.0616564 0.199604 0.523739 0.0
C_ C_ 0.223432 0.208158 0.979622 0.0
C_ C_ 0.229691 0.176921 0.960427 0.0
C_ C_ 0.258361 0.147773 0.970894 0.0
C_ C_ 0.272685 0.121709 0.951505 0.0
C_ C_ 0.261068 0.12342 0.920844 0.0
C_ C_ 0.229698 0.150154 0.909989 0.0
C_ C_ 0.214601 0.177522 0.928719 0.0
C_ C_ 0.200973 0.13515 0.886796 0.0
C_ C_ 0.246822 0.0930646 0.904522 0.0
C_ C_ 0.147926 0.0174885 0.849708 0.0
C_ C_ 0.165393 0.0427322 0.871453 0.0
C_ C_ 0.186262 0.0765668 0.861617 0.0
C_ C_ 0.173828 0.0892004 0.833146 0.0
C_ C_ 0.151039 0.0644853 0.812637 0.0
C_ C_ 0.0325027 0.215198 0.916521 0.0
C_ C_ 0.00188238 0.206547 0.888806 0.0
C_ C_ 0.290596 0.228802 0.874971 0.0
C_ C_ 0.263248 0.222468 0.847942 0.0
C_ C_ 0.288119 0.20419 0.824377 0.0
C_ C_ 0.998927 0.184255 0.837496 0.0
C_ C_ 0.0273729 0.189334 0.865009 0.0
C_ C_ 0.263481 0.182586 0.802382 0.0
C_ C_ 0.00356147 0.157141 0.816387 0.0
C_ C_ 0.24432 0.10008 0.731175 0.0
C_ C_ 0.260627 0.129856 0.747698 0.0
C_ C_ 0.281792 0.12657 0.776469 0.0
C_ C_ 0.277185 0.0926521 0.790698 0.0
C_ C_ 0.264346 0.0625283 0.773727 0.0
C_ C_ 0.224584 0.461926 0.767893 0.0
C_ C_ 0.223393 0.426316 0.782837 0.0
C_ C_ 0.230258 0.394526 0.766248 0.0
C_ C_ 0.22345 0.361141 0.78081 0.0
C_ C_ 0.216769 0.360543 0.812018 0.0
C_ C_ 0.214144 0.391617 0.828148 0.0
C_ C_ 0.213273 0.423829 0.814203 0.0
C_ C_ 0.183793 0.383971 0.85385 0.0
C_ C_ 0.187385 0.33341 0.828978 0.0
C_ C_ 0.0989225 0.31055 0.922467 0.0
C_ C_ 0.108761 0.331721 0.896736 0.0
C_ C_ 0.157598 0.329401 0.881522 0.0
C_ C_ 0.192438 0.305811 0.891053 0.0
C_ C_ 0.178421 0.283536 0.914866 0.0
C_ C_ 0.0336126 0.462459 0.832217 0.0
C_ C_ 1.00286 0.454747 0.860144 0.0
C_ C_ 0.284542 0.471597 0.866411 0.0
C_ C_ 0.253667 0.463847 0.892927 0.0
C_ C_ 0.273468 0.439713 0.912856 0.0
C_ C_ 0.99616 0.430748 0.910458 0.0
C_ C_ 0.0248727 0.435834 0.883576 0.0
C_ C_ 0.243292 0.413946 0.929851 0.0
C_ C_ -0.00147679 0.401453 0.929698 0.0
C_ C_ 0.244968 0.344741 0.51185 0.0
C_ C_ 0.223776 0.361405 0.981632 0.0
C_ C_ 0.261622 0.358296 0.958475 0.0
C_ C_ 0.286438 0.325076 0.956725 0.0
C_ C_ 0.276706 0.299454 0.978693 0.0
C_ C_ 0.106755 0.292756 0.519413 0.0
C_ C_ 0.0968971 0.323444 0.539105 0.0
C_ C_ 0.0496261 0.34324 0.536607 0.0
C_ C_ 0.0426183 0.371669 0.555252 0.0
C_ C_ 0.0857821 0.387264 0.570422 0.0
C_ C_ 0.130323 0.368676 0.574234 0.0
C_ C_ 0.135714 0.335585 0.560684 0.0
C_ C_ 0.151086 0.377944 0.602544 0.0
C_ C_ 0.0817311 0.407077 0.596437 0.0
C_ C_ 0.175159 0.48568 0.651632 0.0
C_ C_ 0.151931 0.462159 0.630667 0.0
C_ C_ 0.142829 0.426562 0.637604 0.0
C_ C_ 0.156907 0.41512 0.665958 0.0
C_ C_ 0.177738 0.440831 0.688307 0.0
C_ C_ 0.295862 0.292989 0.582358 0.0
C_ C_ 0.328972 0.302574 0.608938 0.0
C_ C_ 0.0527836 0.285245 0.614025 0.0
C_ C_ 0.0800296 0.291409 0.641837 0.0
C_ C_ 0.0543596 0.307713 0.664806 0.0
C_ C_ 0.359441 0.342437 0.648252 0.0
C_ C_ 0.322838 0.334599 0.625451 0.0
C_ C_ 0.079681 0.331916 0.683531 0.0
C_ C_ 0.354107 0.366617 0.670856 0.0
C_ C_ 0.0995619 0.408415 0.758698 0.0
C_ C_ 0.0889763 0.380523 0.739404 0.0
C_ C_ 0.0568908 0.38364 0.713601 0.0
C_ C_ 0.0435416 0.41778 0.70547 0.0
C_ C_ 0.0588869 0.446111 0.723862 0.0
N_ N_ 0.188432 0.220377 0.568173 0.0
N_ N_ 0.12301 0.145406 0.629247 0.0
N_ N_ 0.046125 0.104213 0.55499 0.0
N_ N_ 0.0891492 0.193886 0.497601 0.0
N_ N_ 0.143253 0.0296616 0.820648 0.0
N_ N_ 0.209732 0.100803 0.884463 0.0
N_ N_ 0.295635 0.156978 0.794131 0.0
N_ N_ 0.244989 0.0665044 0.745502 0.0
N_ N_ 0.13399 0.287871 0.931463 0.0
N_ N_ 0.165155 0.3494 0.853202 0.0
N_ N_ 0.272849 0.38613 0.935913 0.0
N_ N_ 0.241042 0.304173 0.0011499999999999844 0.0
N_ N_ 0.185758 0.475119 0.680778 0.0
N_ N_ 0.120762 0.400494 0.616621 0.0
N_ N_ 0.044408 0.353061 0.695722 0.0
N_ N_ 0.0843121 0.441395 0.750416 0.0
O_ O_ 0.127913 0.0163193 0.720183 0.0
O_ O_ 0.0786362 0.0382727 0.754702 0.0
O_ O_ 0.0342017 0.162822 0.635533 0.0
O_ O_ 0.175673 0.0967902 0.630248 0.0
O_ O_ 0.252201 0.0481417 0.671242 0.0
O_ O_ 0.308272 0.00964365 0.683829 0.0
O_ O_ 0.289429 0.123723 0.574813 0.0
O_ O_ 0.122624 0.0714475 0.550353 0.0
O_ O_ 0.200231 0.233799 0.968652 0.0
O_ O_ 0.254023 0.220514 0.501128 0.0
O_ O_ 0.279082 0.0667171 0.900011 0.0
O_ O_ 0.158993 0.147865 0.875303 0.0
O_ O_ 0.0820413 0.209603 0.918799 0.0
O_ O_ 0.0129099 0.235993 0.937232 0.0
O_ O_ 0.0396464 0.133809 0.818708 0.0
O_ O_ 0.211317 0.178342 0.799122 0.0
O_ O_ 0.197746 0.487253 0.7779 0.0
O_ O_ 0.256291 0.468246 0.745948 0.0
O_ O_ 0.162526 0.306497 0.815345 0.0
O_ O_ 0.152002 0.406895 0.863813 0.0
O_ O_ 0.078655 0.451023 0.827885 0.0
O_ O_ 0.0188513 0.48655 0.814936 0.0
O_ O_ 0.0405426 0.387918 0.938158 0.0
O_ O_ 0.192627 0.409852 0.927209 0.0
O_ O_ 0.13279 0.268342 0.530924 0.0
O_ O_ 0.0793682 0.287016 0.999546 0.0
O_ O_ 0.0347743 0.419012 0.605409 0.0
O_ O_ 0.181406 0.356424 0.617335 0.0
O_ O_ 0.25884 0.311535 0.574269 0.0
O_ O_ 0.300702 0.264753 0.567436 0.0
O_ O_ 0.314096 0.386796 0.673383 0.0
O_ O_ 0.124915 0.326038 0.696325 0.0
Cd Cd 0.226463 0.516405 0.213481 0.0
Cd Cd 0.10629 0.736963 0.46328 0.0
Cd Cd 0.108593 0.988575 0.28698 0.0
Cd Cd 0.225416 0.76263 0.0355859 0.0
H_ H_ 0.013544 0.581768 0.225665 0.0
H_ H_ 0.336386 0.630487 0.192042 0.0
H_ H_ 0.172238 0.576419 0.187808 0.0
H_ H_ 0.161146 0.759335 0.0976705 0.0
H_ H_ 0.121903 0.71642 0.133459 0.0
H_ H_ 0.159157 0.630767 0.0740261 0.0
H_ H_ 0.204124 0.677023 0.0405197 0.0
H_ H_ 0.0742595 0.527705 0.156456 0.0
H_ H_ 0.122592 0.535643 0.109991 0.0
H_ H_ 0.265255 0.57148 0.116109 0.0
H_ H_ 0.129019 0.653242 0.470129 0.0
H_ H_ 0.0742345 0.599709 0.996953 0.0
H_ H_ 0.0342643 0.670468 0.0665861 0.0
H_ H_ 0.0507646 0.720973 0.0325437 0.0
H_ H_ 0.304801 0.660181 0.486478 0.0
H_ H_ 0.999471 0.623258 0.438416 0.0
H_ H_ 0.179308 0.689798 0.424947 0.0
H_ H_ 0.158528 0.990507 0.352517 0.0
H_ H_ 0.163482 0.519312 0.400363 0.0
H_ H_ 0.17629 0.603675 0.333282 0.0
H_ H_ 0.140401 0.562518 0.297359 0.0
H_ H_ 0.269791 0.739233 0.398921 0.0
H_ H_ 0.213172 0.708721 0.359153 0.0
H_ H_ 0.0565723 0.669276 0.371201 0.0
H_ H_ 0.24179 0.599198 0.212964 0.0
H_ H_ 0.256795 0.650653 0.244185 0.0
H_ H_ 0.299126 0.578183 0.315594 0.0
H_ H_ 0.279554 0.528468 0.28016 0.0
H_ H_ 0.323865 0.916967 0.27058 0.0
H_ H_ 1.00116 0.876997 0.314758 0.0
H_ H_ 0.17236 0.935048 0.314998 0.0
H_ H_ 0.130229 0.730965 0.391661 0.0
H_ H_ 0.161962 0.768251 0.34786 0.0
H_ H_ 0.19038 0.856185 0.409889 0.0
H_ H_ 0.16568 0.816696 0.451554 0.0
H_ H_ 0.266435 0.982521 0.345781 0.0
H_ H_ 0.209676 0.965517 0.392964 0.0
H_ H_ 0.0585027 0.922573 0.379786 0.0
H_ H_ 0.241829 0.853306 0.0379812 0.0
H_ H_ 0.234933 0.898334 0.498593 0.0
H_ H_ 0.312298 0.832298 0.436174 0.0
H_ H_ 0.297766 0.781646 0.473435 0.0
H_ H_ 0.0136524 0.827913 0.0242705 0.0
H_ H_ 0.334177 0.879266 0.0596218 0.0
H_ H_ 0.171675 0.821461 0.0600661 0.0
H_ H_ 0.176337 0.519521 0.148665 0.0
H_ H_ 0.137828 0.97583 0.109087 0.0
H_ H_ 0.169294 0.888801 0.168491 0.0
H_ H_ 0.195227 0.931482 0.208774 0.0
H_ H_ 0.0693721 0.770322 0.0952506 0.0
H_ H_ 0.12471 0.789897 0.14097 0.0
H_ H_ 0.271363 0.825192 0.131557 0.0
H_ H_ 0.125647 0.904957 0.280984 0.0
H_ H_ 0.108651 0.854014 0.246225 0.0
H_ H_ 0.0158111 0.919605 0.18935 0.0
H_ H_ 0.0435326 0.971335 0.22187 0.0
C_ C_ 0.104947 0.546074 0.231818 0.0
C_ C_ 0.0979072 0.578139 0.213391 0.0
C_ C_ 0.0468815 0.593535 0.213779 0.0
C_ C_ 0.0393871 0.621897 0.193681 0.0
C_ C_ 0.0789319 0.635111 0.174082 0.0
C_ C_ 0.128143 0.6219 0.174668 0.0
C_ C_ 0.136778 0.590576 0.192093 0.0
C_ C_ 0.151496 0.629348 0.147609 0.0
C_ C_ 0.0725971 0.651248 0.145211 0.0
C_ C_ 0.164216 0.73165 0.0928908 0.0
C_ C_ 0.139411 0.707208 0.113063 0.0
C_ C_ 0.135911 0.671357 0.107061 0.0
C_ C_ 0.159315 0.659628 0.0803398 0.0
C_ C_ 0.184975 0.684774 0.0609416 0.0
C_ C_ 0.302874 0.540922 0.168555 0.0
C_ C_ 0.333373 0.547535 0.140521 0.0
C_ C_ 0.0529041 0.536941 0.137568 0.0
C_ C_ 0.0798683 0.542889 0.110544 0.0
C_ C_ 0.0547104 0.5575 0.0867027 0.0
C_ C_ 0.335383 0.566113 0.0870282 0.0
C_ C_ 0.308673 0.565246 0.115212 0.0
C_ C_ 0.0814239 0.580369 0.0667472 0.0
C_ C_ 0.330416 0.594111 0.0659567 0.0
C_ C_ 0.107508 0.656467 0.490994 0.0
C_ C_ 0.0790961 0.626004 0.00673657 0.0
C_ C_ 0.0580352 0.631476 0.0353581 0.0
C_ C_ 0.0504608 0.666559 0.0454676 0.0
C_ C_ 0.0612476 0.694626 0.0265299 0.0
C_ C_ 0.229123 0.710475 0.475953 0.0
C_ C_ 0.236944 0.677576 0.458356 0.0
C_ C_ 0.278745 0.656473 0.466279 0.0
C_ C_ 0.287404 0.626153 0.448486 0.0
C_ C_ 0.260553 0.621735 0.421008 0.0
C_ C_ 0.218771 0.641696 0.41415 0.0
C_ C_ 0.207272 0.671642 0.432001 0.0
C_ C_ 0.183545 0.622071 0.396102 0.0
C_ C_ 0.24958 0.588533 0.407311 0.0
C_ C_ 0.144296 0.505287 0.35419 0.0
C_ C_ 0.164812 0.528508 0.377139 0.0
C_ C_ 0.181553 0.564075 0.36958 0.0
C_ C_ 0.173694 0.576067 0.33974 0.0
C_ C_ 0.149153 0.552326 0.319471 0.0
C_ C_ 0.0309501 0.711753 0.417187 0.0
C_ C_ 0.0017700000000000493 0.706102 0.389285 0.0
C_ C_ 0.282596 0.718216 0.384341 0.0
C_ C_ 0.252604 0.706012 0.360015 0.0
C_ C_ 0.281233 0.694762 0.335042 0.0
C_ C_ 0.995922 0.681417 0.339139 0.0
C_ C_ 0.0239408 0.685339 0.366805 0.0
C_ C_ 0.25878 0.673465 0.312016 0.0
C_ C_ -0.00147663 0.652407 0.320328 0.0
C_ C_ 0.251429 0.594483 0.23558 0.0
C_ C_ 0.259949 0.623124 0.254339 0.0
C_ C_ 0.274819 0.617366 0.28412 0.0
C_ C_ 0.282226 0.583285 0.293417 0.0
C_ C_ 0.268839 0.554533 0.274333 0.0
C_ C_ 0.239464 0.963308 0.274843 0.0
C_ C_ 0.248613 0.930803 0.292124 0.0
C_ C_ 0.290893 0.908743 0.286646 0.0
C_ C_ 0.295623 0.878011 0.305522 0.0
C_ C_ 0.262133 0.872129 0.329923 0.0
C_ C_ 0.219674 0.893219 0.334069 0.0
C_ C_ 0.21036 0.920179 0.314282 0.0
C_ C_ 0.178225 0.871172 0.347124 0.0
C_ C_ 0.248333 0.840004 0.341151 0.0
C_ C_ 0.148007 0.756732 0.395298 0.0
C_ C_ 0.162461 0.778206 0.370637 0.0
C_ C_ 0.178808 0.815505 0.376332 0.0
C_ C_ 0.179129 0.828713 0.405809 0.0
C_ C_ 0.167047 0.805371 0.429282 0.0
C_ C_ 0.0336602 0.965061 0.332047 0.0
C_ C_ 0.00338958 0.956034 0.360201 0.0
C_ C_ 0.283206 0.969101 0.364405 0.0
C_ C_ 0.252743 0.959494 0.390252 0.0
C_ C_ 0.277647 0.941317 0.413137 0.0
C_ C_ 0.996644 0.932762 0.410399 0.0
C_ C_ 0.0220623 0.935077 0.382428 0.0
C_ C_ 0.253843 0.922776 0.437028 0.0
C_ C_ 1.00204646 0.905966 0.431415 0.0
C_ C_ 0.241572 0.847708 0.0146041 0.0
C_ C_ 0.24537 0.87166 0.49186 0.0
C_ C_ 0.273053 0.867947 0.464013 0.0
C_ C_ 0.291013 0.834471 0.45733 0.0
C_ C_ 0.279445 0.806207 0.476945 0.0
C_ C_ 0.103812 0.79031 0.0215389 0.0
C_ C_ 0.0908648 0.818571 0.0430122 0.0
C_ C_ 0.0414338 0.834853 0.0419849 0.0
C_ C_ 0.0331037 0.862457 0.0621195 0.0
C_ C_ 0.0728722 0.870514 0.084502 0.0
C_ C_ 0.119968 0.854614 0.0853053 0.0
C_ C_ 0.131074 0.830827 0.0622999 0.0
C_ C_ 0.155426 0.874787 0.102487 0.0
C_ C_ 0.0835055 0.903616 0.0996572 0.0
C_ C_ 0.178576 0.987935 0.149974 0.0
C_ C_ 0.153686 0.964455 0.129974 0.0
C_ C_ 0.152372 0.92816 0.13525 0.0
C_ C_ 0.167128 0.916026 0.163548 0.0
C_ C_ 0.183701 0.940318 0.186208 0.0
C_ C_ 0.298935 0.786435 0.0832835 0.0
C_ C_ 0.330068 0.793965 0.111089 0.0
C_ C_ 0.0499919 0.782546 0.113687 0.0
C_ C_ 0.0793705 0.792211 0.140327 0.0
C_ C_ 0.0532593 0.805233 0.164337 0.0
C_ C_ 0.335254 0.817277 0.162272 0.0
C_ C_ 0.307652 0.812527 0.134945 0.0
C_ C_ 0.0778805 0.82498 0.186708 0.0
C_ C_ 0.330753 0.84626 0.181883 0.0
C_ C_ 0.106287 0.908382 0.25874 0.0
C_ C_ 0.0921189 0.878812 0.24017 0.0
C_ C_ 0.063739 0.882326 0.21333 0.0
C_ C_ 0.0469381 0.916927 0.206414 0.0
C_ C_ 0.064907 0.946572 0.224151 0.0
N_ N_ 0.181811 0.720401 0.0659033 0.0
N_ N_ 0.115749 0.645064 0.128653 0.0
N_ N_ 0.045941 0.602105 0.0552886 0.0
N_ N_ 0.0853425 0.69028 0.999382 0.0
N_ N_ 0.141058 0.517407 0.32564 0.0
N_ N_ 0.201941 0.58955 0.392589 0.0
N_ N_ 0.290642 0.648137 0.30342 0.0
N_ N_ 0.248882 0.560532 0.246687 0.0
N_ N_ 0.147573 0.771089 0.423894 0.0
N_ N_ 0.196717 0.837865 0.350986 0.0
N_ N_ 0.288166 0.898664 0.446468 0.0
N_ N_ 0.249614 0.811007 0.501243 0.0
N_ N_ 0.18908 0.97643 0.178372 0.0
N_ N_ 0.130969 0.90323 0.111802 0.0
N_ N_ 0.044882 0.849632 0.197387 0.0
N_ N_ 0.0945713 0.941698 0.249675 0.0
O_ O_ 0.130415 0.522125 0.221139 0.0
O_ O_ 0.0739886 0.539461 0.253467 0.0
O_ O_ 0.0263353 0.652575 0.133229 0.0
O_ O_ 0.19203 0.612633 0.13738 0.0
O_ O_ 0.26414 0.557892 0.174707 0.0
O_ O_ 0.311875 0.5156 0.184464 0.0
O_ O_ 0.294868 0.61782 0.0694318 0.0
O_ O_ 0.119466 0.568597 0.0504057 0.0
O_ O_ 0.206155 0.735819 0.465046 0.0
O_ O_ 0.253786 0.716125 0.00101763 0.0
O_ O_ 0.285259 0.56777 0.398572 0.0
O_ O_ 0.131588 0.627233 0.39561 0.0
O_ O_ 0.0703976 0.693729 0.423086 0.0
O_ O_ 0.0252255 0.738572 0.433334 0.0
O_ O_ 0.0447163 0.637826 0.313546 0.0
O_ O_ 0.206064 0.669756 0.305903 0.0
O_ O_ 0.210702 0.986927 0.286537 0.0
O_ O_ 0.258577 0.96832 0.248031 0.0
O_ O_ 0.283084 0.819761 0.35365 0.0
O_ O_ 0.126191 0.877123 0.346769 0.0
O_ O_ 0.0807152 0.953752 0.328569 0.0
O_ O_ 0.0188425 0.987491 0.313056 0.0
O_ O_ 0.0367593 0.882509 0.428245 0.0
O_ O_ 0.200337 0.918322 0.441181 0.0
O_ O_ 0.129348 0.763826 0.0323444 0.0
O_ O_ 0.0893462 0.790868 0.493638 0.0
O_ O_ 0.0452802 0.923396 0.10961 0.0
O_ O_ 0.206487 0.875836 0.0998097 0.0
O_ O_ 0.253036 0.79915 0.0790849 0.0
O_ O_ 0.310786 0.762244 0.0655044 0.0
O_ O_ 0.286381 0.855629 0.192528 0.0
O_ O_ 0.129514 0.829815 0.188156 0.0
Cd Cd 0.230915 0.514513 0.712995 0.0
Cd Cd 0.102396 0.739169 0.964918 0.0
Cd Cd 0.102547 0.988065 0.787024 0.0
Cd Cd 0.229983 0.76194 0.535365 0.0
H_ H_ 0.021722 0.586717 0.728461 0.0
H_ H_ 0.332599 0.625605 0.687157 0.0
H_ H_ 0.164533 0.562201 0.681168 0.0
H_ H_ 0.196899 0.7634 0.603954 0.0
H_ H_ 0.144538 0.724811 0.642969 0.0
H_ H_ 0.178754 0.637164 0.584515 0.0
H_ H_ 0.199551 0.679395 0.542026 0.0
H_ H_ 0.0694453 0.517964 0.654711 0.0
H_ H_ 0.118416 0.531294 0.607274 0.0
H_ H_ 0.279215 0.581096 0.621598 0.0
H_ H_ 0.0991669 0.654657 0.965084 0.0
H_ H_ 0.106026 0.600851 0.502683 0.0
H_ H_ 0.027797 0.669258 0.563666 0.0
H_ H_ 0.0523411 0.721704 0.529878 0.0
H_ H_ 0.311639 0.669252 0.978454 0.0
H_ H_ 1.00076 0.623278 0.938445 0.0
H_ H_ 0.171144 0.685829 0.929006 0.0
H_ H_ 0.133633 0.990865 0.856837 0.0
H_ H_ 0.190275 0.53453 0.885776 0.0
H_ H_ 0.177357 0.616682 0.824065 0.0
H_ H_ 0.146318 0.572858 0.78358 0.0
H_ H_ 0.25987 0.72691 0.903597 0.0
H_ H_ 0.208279 0.705083 0.861422 0.0
H_ H_ 0.0613988 0.67307 0.87232 0.0
H_ H_ 0.211441 0.598583 0.718777 0.0
H_ H_ 0.234665 0.649237 0.752898 0.0
H_ H_ 0.316131 0.576314 0.810623 0.0
H_ H_ 0.288486 0.528888 0.778572 0.0
H_ H_ 0.315244 0.925399 0.776384 0.0
H_ H_ 0.991786 0.865738 0.804054 0.0
H_ H_ 0.171244 0.936227 0.821006 0.0
H_ H_ 0.174259 0.744297 0.905913 0.0
H_ H_ 0.233471 0.786001 0.875522 0.0
H_ H_ 0.160826 0.873071 0.9234 0.0
H_ H_ 0.11682 0.827115 0.957015 0.0
H_ H_ 0.260991 0.976568 0.844543 0.0
H_ H_ 0.211379 0.960067 0.889931 0.0
H_ H_ 0.0612088 0.923874 0.879376 0.0
H_ H_ 0.230543 0.849142 0.532978 0.0
H_ H_ 0.243802 0.904036 1.00080509 0.0
H_ H_ 0.308181 0.830361 0.939866 0.0
H_ H_ 0.276247 0.779023 0.973637 0.0
H_ H_ 0.0231547 0.831601 0.519222 0.0
H_ H_ 0.333781 0.878037 0.560562 0.0
H_ H_ 0.161302 0.812997 0.572778 0.0
H_ H_ 0.183549 0.512243 0.643816 0.0
H_ H_ 0.118583 0.964222 0.618005 0.0
H_ H_ 0.167162 0.881697 0.674122 0.0
H_ H_ 0.199071 0.92349 0.712124 0.0
H_ H_ 0.0660235 0.770951 0.596476 0.0
H_ H_ 0.122555 0.787593 0.64094 0.0
H_ H_ 0.268721 0.820695 0.631521 0.0
H_ H_ 0.110463 0.902747 0.785867 0.0
H_ H_ 0.0792921 0.848681 0.756393 0.0
H_ H_ 0.0263978 0.919548 0.685103 0.0
H_ H_ 0.0396394 0.969977 0.72177 0.0
C_ C_ 0.10044 0.539677 0.72799 0.0
C_ C_ 0.0940075 0.569858 0.707236 0.0
C_ C_ 0.0494783 0.589041 0.709981 0.0
C_ C_ 0.0380883 0.614627 0.688473 0.0
C_ C_ 0.0698863 0.618272 0.662369 0.0
C_ C_ 0.116393 0.600131 0.660199 0.0
C_ C_ 0.129285 0.575513 0.682208 0.0
C_ C_ 0.153244 0.621839 0.644928 0.0
C_ C_ 0.081061 0.649776 0.648171 0.0
C_ C_ 0.183284 0.736951 0.598497 0.0
C_ C_ 0.161047 0.714209 0.620981 0.0
C_ C_ 0.156137 0.678114 0.615811 0.0
C_ C_ 0.174037 0.665079 0.587886 0.0
C_ C_ 0.18335 0.689753 0.564104 0.0
C_ C_ 0.303303 0.541151 0.66814 0.0
C_ C_ 0.332599 0.547986 0.640002 0.0
C_ C_ 0.049114 0.528878 0.635726 0.0
C_ C_ 0.0774071 0.537183 0.608645 0.0
C_ C_ 0.0504594 0.552903 0.584152 0.0
C_ C_ 0.336275 0.569476 0.589346 0.0
C_ C_ 0.312029 0.567996 0.61736 0.0
C_ C_ 0.0768175 0.573694 0.562615 0.0
C_ C_ 0.332858 0.597642 0.569403 0.0
C_ C_ 0.0906974 0.656643 0.988263 0.0
C_ C_ 0.0924021 0.626567 0.509478 0.0
C_ C_ 0.0635208 0.631358 0.535489 0.0
C_ C_ 0.0512735 0.665646 0.543549 0.0
C_ C_ 0.0671571 0.694797 0.525373 0.0
C_ C_ 0.225987 0.708644 0.977105 0.0
C_ C_ 0.230938 0.67485 0.961113 0.0
C_ C_ 0.280731 0.658081 0.962865 0.0
C_ C_ 0.292478 0.63054 0.941631 0.0
C_ C_ 0.251529 0.619325 0.921618 0.0
C_ C_ 0.203848 0.634788 0.921037 0.0
C_ C_ 0.197783 0.667171 0.936754 0.0
C_ C_ 0.182543 0.626101 0.893807 0.0
C_ C_ 0.254938 0.598601 0.896433 0.0
C_ C_ 0.161366 0.519513 0.84279 0.0
C_ C_ 0.18558 0.542185 0.862398 0.0
C_ C_ 0.192378 0.577874 0.856008 0.0
C_ C_ 0.1763 0.590205 0.828213 0.0
C_ C_ 0.154793 0.565493 0.806634 0.0
C_ C_ 0.032114 0.713804 0.917944 0.0
C_ C_ -0.000412598 0.703383 0.890771 0.0
C_ C_ 0.280462 0.714291 0.885789 0.0
C_ C_ 0.252438 0.707382 0.860344 0.0
C_ C_ 0.277502 0.692581 0.836301 0.0
C_ C_ 0.996133 0.681807 0.839364 0.0
C_ C_ 0.0215726 0.6834 0.868501 0.0
C_ C_ 0.255425 0.67137 0.814032 0.0
C_ C_ 0.00012999999999996348 0.65428 0.820567 0.0
C_ C_ 0.233628 0.594409 0.739852 0.0
C_ C_ 0.246372 0.622723 0.758864 0.0
C_ C_ 0.27314 0.616792 0.785116 0.0
C_ C_ 0.290767 0.581925 0.791655 0.0
C_ C_ 0.273091 0.553776 0.773418 0.0
C_ C_ 0.227117 0.959363 0.772475 0.0
C_ C_ 0.236397 0.927912 0.79188 0.0
C_ C_ 0.284726 0.911371 0.790233 0.0
C_ C_ 0.295543 0.883793 0.809779 0.0
C_ C_ 0.255944 0.872541 0.831016 0.0
C_ C_ 0.210453 0.889066 0.833238 0.0
C_ C_ 0.200955 0.918999 0.815262 0.0
C_ C_ 0.189835 0.881978 0.860708 0.0
C_ C_ 0.262937 0.85361 0.858305 0.0
C_ C_ 0.177011 0.772061 0.912114 0.0
C_ C_ 0.205571 0.795511 0.893498 0.0
C_ C_ 0.196621 0.832238 0.895567 0.0
C_ C_ 0.166513 0.843957 0.920497 0.0
C_ C_ 0.142988 0.81862 0.939231 0.0
C_ C_ 0.0311937 0.963406 0.832388 0.0
C_ C_ 1.00198 0.957544 0.860539 0.0
C_ C_ 0.280194 0.963125 0.861887 0.0
C_ C_ 0.252265 0.958524 0.889204 0.0
C_ C_ 0.278017 0.943767 0.913923 0.0
C_ C_ 0.995578 0.931699 0.910262 0.0
C_ C_ 0.0233372 0.935488 0.882271 0.0
C_ C_ 0.253132 0.921973 0.934688 0.0
C_ C_ 0.000615875 0.903779 0.930471 0.0
C_ C_ 0.237083 0.843714 0.509979 0.0
C_ C_ 0.254019 0.876773 0.995258 0.0
C_ C_ 0.275845 0.869634 0.96753 0.0
C_ C_ 0.286571 0.834743 0.960288 0.0
C_ C_ 0.266532 0.806731 0.978696 0.0
C_ C_ 0.111725 0.794726 0.519705 0.0
C_ C_ 0.101374 0.823965 0.53931 0.0
C_ C_ 0.0526204 0.841368 0.536352 0.0
C_ C_ 0.0385879 0.867047 0.559253 0.0
C_ C_ 0.0792742 0.880129 0.578579 0.0
C_ C_ 0.124544 0.862329 0.581663 0.0
C_ C_ 0.131689 0.830788 0.565883 0.0
C_ C_ 0.144435 0.869384 0.61027 0.0
C_ C_ 0.0740296 0.899513 0.604252 0.0
C_ C_ 0.153671 0.982163 0.661477 0.0
C_ C_ 0.134577 0.955869 0.639225 0.0
C_ C_ 0.136359 0.919411 0.645033 0.0
C_ C_ 0.157412 0.909669 0.672205 0.0
C_ C_ 0.179293 0.93461 0.69282 0.0
C_ C_ 0.304467 0.78822 0.581546 0.0
C_ C_ 0.334202 0.796813 0.609054 0.0
C_ C_ 0.052009 0.785797 0.613186 0.0
C_ C_ 0.0810511 0.794213 0.63872 0.0
C_ C_ 0.0547193 0.807394 0.663723 0.0
C_ C_ 0.337491 0.818216 0.660607 0.0
C_ C_ 0.308022 0.813135 0.633343 0.0
C_ C_ 0.0812362 0.829604 0.685014 0.0
C_ C_ 0.333776 0.847208 0.679909 0.0
C_ C_ 0.0913021 0.906708 0.764833 0.0
C_ C_ 0.0746761 0.875983 0.747993 0.0
C_ C_ 0.0558958 0.881295 0.717729 0.0
C_ C_ 0.0451986 0.915118 0.707785 0.0
C_ C_ 0.0587552 0.944814 0.72683 0.0
N_ N_ 0.192089 0.725205 0.570953 0.0
N_ N_ 0.132112 0.652493 0.638026 0.0
N_ N_ 0.0466894 0.601092 0.554394 0.0
N_ N_ 0.0947625 0.690243 0.499438 0.0
N_ N_ 0.148554 0.529947 0.814671 0.0
N_ N_ 0.213268 0.60364 0.878566 0.0
N_ N_ 0.288515 0.647046 0.804519 0.0
N_ N_ 0.244376 0.560208 0.748164 0.0
N_ N_ 0.145354 0.782411 0.933779 0.0
N_ N_ 0.220334 0.858297 0.875838 0.0
N_ N_ 0.289082 0.899112 0.946399 0.0
N_ N_ 0.240539 0.813749 0.00394998 0.0
N_ N_ 0.175382 0.970857 0.687779 0.0
N_ N_ 0.113903 0.89272 0.623561 0.0
N_ N_ 0.0458456 0.851576 0.697024 0.0
N_ N_ 0.0863487 0.940166 0.753446 0.0
O_ O_ 0.135663 0.517796 0.724052 0.0
O_ O_ 0.0682413 0.533262 0.749295 0.0
O_ O_ 0.0436232 0.668755 0.636438 0.0
O_ O_ 0.203994 0.621262 0.651633 0.0
O_ O_ 0.259234 0.551357 0.670195 0.0
O_ O_ 0.317665 0.518277 0.686608 0.0
O_ O_ 0.286784 0.606089 0.557814 0.0
O_ O_ 0.128698 0.576309 0.560442 0.0
O_ O_ 0.198374 0.732607 0.966211 0.0
O_ O_ 0.250633 0.715203 0.501529 0.0
O_ O_ 0.29985 0.591713 0.885471 0.0
O_ O_ 0.152508 0.648509 0.880683 0.0
O_ O_ 0.0733542 0.697479 0.924477 0.0
O_ O_ 0.0220455 0.739961 0.934578 0.0
O_ O_ 0.0419354 0.634965 0.817925 0.0
O_ O_ 0.205473 0.672811 0.803452 0.0
O_ O_ 0.201758 0.984197 0.784197 0.0
O_ O_ 0.25795 0.967189 0.751001 0.0
O_ O_ 0.310784 0.848401 0.869462 0.0
O_ O_ 0.139572 0.884933 0.866994 0.0
O_ O_ 0.0699367 0.945846 0.825961 0.0
O_ O_ 0.0236283 0.990503 0.815532 0.0
O_ O_ 0.0319453 0.878612 0.925873 0.0
O_ O_ 0.21525 0.932918 0.951427 0.0
O_ O_ 0.134696 0.767422 0.530746 0.0
O_ O_ 0.0769477 0.785282 -0.0026370000000000005 0.0
O_ O_ 0.0279382 0.908291 0.614217 0.0
O_ O_ 0.191755 0.862541 0.619682 0.0
O_ O_ 0.261377 0.801516 0.575727 0.0
O_ O_ 0.314432 0.762467 0.565921 0.0
O_ O_ 0.290506 0.862789 0.686028 0.0
O_ O_ 0.121929 0.818849 0.700562 0.0
Cd Cd 0.563947 0.0121332 0.215361 0.0
Cd Cd 0.434804 0.235297 0.461905 0.0
Cd Cd 0.438014 0.487173 0.285854 0.0
Cd Cd 0.559482 0.263038 0.0348348 0.0
H_ H_ 0.389977 0.098776 0.246556 0.0
H_ H_ 0.665965 0.12699 0.188401 0.0
H_ H_ 0.478839 0.0584497 0.171364 0.0
H_ H_ 0.52789 0.267565 0.105512 0.0
H_ H_ 0.492961 0.230176 0.147343 0.0
H_ H_ 0.460041 0.144887 0.0833421 0.0
H_ H_ 0.504108 0.18201 0.0422475 0.0
H_ H_ 0.392897 0.0105917 0.147125 0.0
H_ H_ 0.443378 0.02841 0.0993478 0.0
H_ H_ 0.618939 0.0887213 0.124101 0.0
H_ H_ 0.431105 0.146937 0.474148 0.0
H_ H_ 0.422541 0.0977746 0.994846 0.0
H_ H_ 0.346089 0.16871 0.0568824 0.0
H_ H_ 0.36724 0.218385 0.0224519 0.0
H_ H_ 0.641987 0.165556 0.478977 0.0
H_ H_ 0.330301 0.123703 0.446519 0.0
H_ H_ 0.497618 0.17925 0.430344 0.0
H_ H_ 0.50264 0.491602 0.346823 0.0
H_ H_ 0.537327 0.0336274 0.385794 0.0
H_ H_ 0.502894 0.116449 0.322412 0.0
H_ H_ 0.465127 0.069182 0.289123 0.0
H_ H_ 0.600419 0.234775 0.404359 0.0
H_ H_ 0.544615 0.215432 0.358424 0.0
H_ H_ 0.390642 0.172785 0.365635 0.0
H_ H_ 0.552279 0.0973333 0.217873 0.0
H_ H_ 0.579194 0.1502 0.246885 0.0
H_ H_ 0.64833 0.0839686 0.312637 0.0
H_ H_ 0.615316 0.0294297 0.284517 0.0
H_ H_ 0.642823 0.410758 0.265856 0.0
H_ H_ 0.322073 0.370172 0.301193 0.0
H_ H_ 0.497823 0.435788 0.312771 0.0
H_ H_ 0.499984 0.244342 0.397343 0.0
H_ H_ 0.543862 0.290159 0.365939 0.0
H_ H_ 0.486023 0.370624 0.424499 0.0
H_ H_ 0.423233 0.322861 0.446009 0.0
H_ H_ 0.595262 0.479133 0.346246 0.0
H_ H_ 0.54534 0.461128 0.392294 0.0
H_ H_ 0.396485 0.422651 0.379165 0.0
H_ H_ 0.545772 0.348555 0.0318504 0.0
H_ H_ 0.589618 0.398302 0.503912 0.0
H_ H_ 0.643416 0.329803 0.434954 0.0
H_ H_ 0.617656 0.277527 0.467868 0.0
H_ H_ 0.351271 0.330807 0.0171752 0.0
H_ H_ 0.665897 0.375769 0.062299 0.0
H_ H_ 0.496703 0.30628 0.065724 0.0
H_ H_ 0.505745 0.0086949 0.14955 0.0
H_ H_ 0.45221 0.463891 0.115808 0.0
H_ H_ 0.510299 0.377956 0.168463 0.0
H_ H_ 0.549004 0.420593 0.202761 0.0
H_ H_ 0.405056 0.272449 0.0989745 0.0
H_ H_ 0.451851 0.287936 0.147291 0.0
H_ H_ 0.603085 0.324542 0.129253 0.0
H_ H_ 0.428319 0.401725 0.290825 0.0
H_ H_ 0.408136 0.349759 0.259805 0.0
H_ H_ 0.369574 0.418785 0.184945 0.0
H_ H_ 0.391324 0.471265 0.220859 0.0
C_ C_ 0.438803 0.0401977 0.227096 0.0
C_ C_ 0.430161 0.0726902 0.210061 0.0
C_ C_ 0.401496 0.100076 0.223511 0.0
C_ C_ 0.393213 0.130316 0.207183 0.0
C_ C_ 0.405539 0.132158 0.176323 0.0
C_ C_ 0.432963 0.105649 0.16263 0.0
C_ C_ 0.448716 0.0772907 0.179961 0.0
C_ C_ 0.465393 0.123027 0.141287 0.0
C_ C_ 0.421101 0.164789 0.1632 0.0
C_ C_ 0.510951 0.24166 0.0999361 0.0
C_ C_ 0.489674 0.219648 0.12352 0.0
C_ C_ 0.473624 0.184498 0.117175 0.0
C_ C_ 0.473302 0.171413 0.0878547 0.0
C_ C_ 0.496183 0.192892 0.0654063 0.0
C_ C_ 0.635916 0.0401165 0.169271 0.0
C_ C_ 0.669093 0.0493301 0.141282 0.0
C_ C_ 0.376186 0.0291104 0.129839 0.0
C_ C_ 0.403606 0.0356935 0.102713 0.0
C_ C_ 0.37819 0.0565528 0.0811854 0.0
C_ C_ 0.67047 0.0687869 0.0897078 0.0
C_ C_ 0.648348 0.0698387 0.118809 0.0
C_ C_ 0.402599 0.0777117 0.0592853 0.0
C_ C_ 0.666269 0.0954894 0.0689506 0.0
C_ C_ 0.41875 0.157804 0.496249 0.0
C_ C_ 0.408199 0.124305 0.000987111 0.0
C_ C_ 0.380719 0.1301 0.0275777 0.0
C_ C_ 0.367642 0.164206 0.0360649 0.0
C_ C_ 0.384404 0.192956 0.0187204 0.0
C_ C_ 0.560226 0.208729 0.476268 0.0
C_ C_ 0.568683 0.177093 0.457342 0.0
C_ C_ 0.615538 0.158435 0.460035 0.0
C_ C_ 0.625932 0.129292 0.44167 0.0
C_ C_ 0.587085 0.117307 0.420826 0.0
C_ C_ 0.54024 0.132134 0.419669 0.0
C_ C_ 0.532127 0.164618 0.435561 0.0
C_ C_ 0.519426 0.123179 0.391385 0.0
C_ C_ 0.594517 0.0996796 0.393431 0.0
C_ C_ 0.499957 0.0153561 0.343045 0.0
C_ C_ 0.525457 0.0409515 0.363101 0.0
C_ C_ 0.532189 0.0768403 0.354096 0.0
C_ C_ 0.510903 0.0881618 0.326633 0.0
C_ C_ 0.483526 0.0619093 0.308701 0.0
C_ C_ 0.361263 0.208175 0.415436 0.0
C_ C_ 0.334509 0.206245 0.386654 0.0
C_ C_ 0.61596 0.217692 0.386413 0.0
C_ C_ 0.588532 0.210898 0.359098 0.0
C_ C_ 0.612949 0.19318 0.336026 0.0
C_ C_ 0.335753 0.191063 0.332597 0.0
C_ C_ 0.360504 0.191285 0.361447 0.0
C_ C_ 0.587654 0.171167 0.31578 0.0
C_ C_ 0.345902 0.167352 0.31029 0.0
C_ C_ 0.574156 0.0933181 0.238713 0.0
C_ C_ 0.586116 0.123469 0.256137 0.0
C_ C_ 0.60748 0.118783 0.284767 0.0
C_ C_ 0.623722 0.085036 0.29333 0.0
C_ C_ 0.611213 0.0549056 0.275575 0.0
C_ C_ 0.562373 0.456617 0.266894 0.0
C_ C_ 0.566228 0.42489 0.28571 0.0
C_ C_ 0.613667 0.406214 0.284565 0.0
C_ C_ 0.625671 0.382547 0.308391 0.0
C_ C_ 0.589361 0.378946 0.33255 0.0
C_ C_ 0.543905 0.396776 0.332959 0.0
C_ C_ 0.530391 0.41934 0.309756 0.0
C_ C_ 0.51638 0.386332 0.358714 0.0
C_ C_ 0.588438 0.356115 0.356605 0.0
C_ C_ 0.502758 0.272684 0.404951 0.0
C_ C_ 0.524167 0.299218 0.38595 0.0
C_ C_ 0.518308 0.334199 0.392335 0.0
C_ C_ 0.487318 0.343102 0.416581 0.0
C_ C_ 0.456614 0.31576 0.431375 0.0
C_ C_ 0.371798 0.467715 0.33472 0.0
C_ C_ 0.342777 0.461899 0.362896 0.0
C_ C_ 0.614725 0.465116 0.363449 0.0
C_ C_ 0.586918 0.456547 0.390156 0.0
C_ C_ 0.613461 0.443995 0.413945 0.0
C_ C_ 0.336724 0.435619 0.413365 0.0
C_ C_ 0.362151 0.438421 0.385279 0.0
C_ C_ 0.591075 0.424407 0.436935 0.0
C_ C_ 0.336996 0.40649 0.432031 0.0
C_ C_ 0.560904 0.344645 0.00917766 0.0
C_ C_ 0.585851 0.372338 0.493002 0.0
C_ C_ 0.607286 0.36845 0.465164 0.0
C_ C_ 0.618433 0.333516 0.454718 0.0
C_ C_ 0.604782 0.303028 0.474261 0.0
C_ C_ 0.426743 0.281819 0.0200892 0.0
C_ C_ 0.423574 0.314627 0.039857 0.0
C_ C_ 0.381425 0.337058 0.0355402 0.0
C_ C_ 0.379728 0.367861 0.0513701 0.0
C_ C_ 0.424115 0.379415 0.0695315 0.0
C_ C_ 0.464922 0.358277 0.0748036 0.0
C_ C_ 0.464771 0.323997 0.0608856 0.0
C_ C_ 0.485692 0.365493 0.103968 0.0
C_ C_ 0.42096 0.399689 0.0948512 0.0
C_ C_ 0.497016 0.479414 0.155838 0.0
C_ C_ 0.472793 0.455378 0.134889 0.0
C_ C_ 0.479213 0.418119 0.138338 0.0
C_ C_ 0.50372 0.407042 0.164024 0.0
C_ C_ 0.527617 0.430902 0.183798 0.0
C_ C_ 0.638554 0.288392 0.0804939 0.0
C_ C_ 0.665648 0.293934 0.110769 0.0
C_ C_ 0.385344 0.286918 0.116592 0.0
C_ C_ 0.410863 0.292362 0.14407 0.0
C_ C_ 0.382017 0.306751 0.167762 0.0
C_ C_ 0.668468 0.317149 0.161225 0.0
C_ C_ 0.641665 0.311973 0.133946 0.0
C_ C_ 0.404523 0.327102 0.190003 0.0
C_ C_ 0.663653 0.344121 0.181672 0.0
C_ C_ 0.417698 0.405135 0.266682 0.0
C_ C_ 0.406551 0.374889 0.249214 0.0
C_ C_ 0.386088 0.379801 0.219709 0.0
C_ C_ 0.377385 0.41479 0.209728 0.0
C_ C_ 0.397867 0.443712 0.227967 0.0
N_ N_ 0.512474 0.229109 0.0713835 0.0
N_ N_ 0.457673 0.159694 0.141175 0.0
N_ N_ 0.368097 0.100073 0.0479343 0.0
N_ N_ 0.409476 0.187666 0.992073 0.0
N_ N_ 0.481896 0.0263655 0.316114 0.0
N_ N_ 0.553076 0.104463 0.37484 0.0
N_ N_ 0.621382 0.148768 0.3039 0.0
N_ N_ 0.581262 0.0583749 0.250069 0.0
N_ N_ 0.472058 0.281474 0.42965 0.0
N_ N_ 0.543778 0.361285 0.373656 0.0
N_ N_ 0.623293 0.400424 0.44786 0.0
N_ N_ 0.58158 0.308536 0.500013 0.0
N_ N_ 0.522269 0.46708 0.180656 0.0
N_ N_ 0.459147 0.392593 0.116023 0.0
N_ N_ 0.369314 0.349248 0.20233 0.0
N_ N_ 0.413732 0.438511 0.256176 0.0
O_ O_ 0.467039 0.0162277 0.215549 0.0
O_ O_ 0.411285 0.0325626 0.249972 0.0
O_ O_ 0.388806 0.190079 0.159844 0.0
O_ O_ 0.512943 0.111713 0.132729 0.0
O_ O_ 0.58921 0.0493147 0.171071 0.0
O_ O_ 0.651796 0.0189623 0.189182 0.0
O_ O_ 0.627895 0.118583 0.0688241 0.0
O_ O_ 0.454828 0.0837637 0.057611 0.0
O_ O_ 0.53315 0.234047 0.466335 0.0
O_ O_ 0.580609 0.211516 0.00531098 0.0
O_ O_ 0.640719 0.0933348 0.382879 0.0
O_ O_ 0.484148 0.141456 0.379076 0.0
O_ O_ 0.406078 0.195226 0.418517 0.0
O_ O_ 0.35237 0.234875 0.432769 0.0
O_ O_ 0.385575 0.145784 0.309239 0.0
O_ O_ 0.545178 0.179451 0.300079 0.0
O_ O_ 0.53797 0.482745 0.27603 0.0
O_ O_ 0.590166 0.461362 0.244696 0.0
O_ O_ 0.631002 0.347806 0.368582 0.0
O_ O_ 0.463419 0.386267 0.360116 0.0
O_ O_ 0.411691 0.450342 0.329869 0.0
O_ O_ 0.362406 0.493104 0.316947 0.0
O_ O_ 0.379189 0.396246 0.443845 0.0
O_ O_ 0.53755 0.422999 0.442531 0.0
O_ O_ 0.458188 0.257465 0.0281589 0.0
O_ O_ 0.41768 0.285972 0.494318 0.0
O_ O_ 0.377717 0.414667 0.102518 0.0
O_ O_ 0.509232 0.339959 0.119455 0.0
O_ O_ 0.601798 0.306847 0.07263 0.0
O_ O_ 0.639715 0.258891 0.0678037 0.0
O_ O_ 0.625069 0.367217 0.180896 0.0
O_ O_ 0.445296 0.315928 0.206063 0.0
Cd Cd 0.562966 0.013613 0.714498 0.0
Cd Cd 0.432704 0.235217 0.959617 0.0
Cd Cd 0.435334 0.491615 0.787583 0.0
Cd Cd 0.568138 0.259889 0.533129 0.0
H_ H_ 0.4192 0.106475 0.755004 0.0
H_ H_ 0.670822 0.132396 0.693387 0.0
H_ H_ 0.449187 0.0514753 0.672983 0.0
H_ H_ 0.466411 0.240524 0.573192 0.0
H_ H_ 0.432805 0.202756 0.6139 0.0
H_ H_ 0.575787 0.144468 0.608337 0.0
H_ H_ 0.602923 0.183413 0.564768 0.0
H_ H_ 0.39025 0.0133914 0.65246 0.0
H_ H_ 0.45059 0.0429546 0.613424 0.0
H_ H_ 0.608554 0.0757565 0.618327 0.0
H_ H_ 0.42951 0.147843 0.959498 0.0
H_ H_ 0.42526 0.107296 0.516334 0.0
H_ H_ 0.362627 0.189317 0.571122 0.0
H_ H_ 0.378253 0.231714 0.527702 0.0
H_ H_ 0.647247 0.171704 0.975738 0.0
H_ H_ 0.288991 0.0984849 0.96081 0.0
H_ H_ 0.492504 0.177525 0.934936 0.0
H_ H_ 0.491899 0.49243 0.848674 0.0
H_ H_ 0.544924 0.0354287 0.881786 0.0
H_ H_ 0.487542 0.118677 0.828821 0.0
H_ H_ 0.437371 0.0720914 0.798867 0.0
H_ H_ 0.598823 0.233461 0.904118 0.0
H_ H_ 0.546649 0.220041 0.855652 0.0
H_ H_ 0.403342 0.188549 0.8606 0.0
H_ H_ 0.551757 0.0955852 0.717677 0.0
H_ H_ 0.574566 0.148052 0.747745 0.0
H_ H_ 0.632737 0.0801651 0.815098 0.0
H_ H_ 0.615814 0.0293724 0.782918 0.0
H_ H_ 0.647789 0.427882 0.781233 0.0
H_ H_ 0.223707 0.33662 0.766918 0.0
H_ H_ 0.489156 0.424134 0.810433 0.0
H_ H_ 0.513604 0.241979 0.906829 0.0
H_ H_ 0.543554 0.284727 0.86898 0.0
H_ H_ 0.493705 0.373879 0.926259 0.0
H_ H_ 0.445767 0.32462 0.957373 0.0
H_ H_ 0.593759 0.474019 0.844078 0.0
H_ H_ 0.543814 0.460802 0.889814 0.0
H_ H_ 0.392823 0.424137 0.880737 0.0
H_ H_ 0.569626 0.347093 0.534817 0.0
H_ H_ 0.579908 0.401647 1.00229 0.0
H_ H_ 0.63396 0.329391 0.935027 0.0
H_ H_ 0.613604 0.27969 0.969773 0.0
H_ H_ 0.433667 0.356773 0.492494 0.0
H_ H_ 0.668678 0.380949 0.558056 0.0
H_ H_ 0.473257 0.305447 0.576998 0.0
H_ H_ 0.501956 0.00784524 0.651948 0.0
H_ H_ 0.454208 0.460513 0.618539 0.0
H_ H_ 0.588336 0.397274 0.644121 0.0
H_ H_ 0.602146 0.435929 0.687768 0.0
H_ H_ 0.373261 0.256126 0.606415 0.0
H_ H_ 0.424617 0.268449 0.652956 0.0
H_ H_ 0.598761 0.320035 0.631479 0.0
H_ H_ 0.354407 0.420863 0.781378 0.0
H_ H_ 0.334023 0.369632 0.747574 0.0
H_ H_ 0.474118 0.401937 0.694991 0.0
H_ H_ 0.488385 0.454868 0.728156 0.0
C_ C_ 0.443558 0.0429446 0.731038 0.0
C_ C_ 0.441389 0.0763035 0.715724 0.0
C_ C_ 0.433049 0.109029 0.731657 0.0
C_ C_ 0.43063 0.140942 0.71518 0.0
C_ C_ 0.440905 0.140149 0.684272 0.0
C_ C_ 0.446647 0.108656 0.669065 0.0
C_ C_ 0.445743 0.0767332 0.684405 0.0
C_ C_ 0.473627 0.116965 0.642104 0.0
C_ C_ 0.465426 0.168023 0.666728 0.0
C_ C_ 0.490416 0.221295 0.581386 0.0
C_ C_ 0.473198 0.200617 0.605658 0.0
C_ C_ 0.503007 0.172059 0.614611 0.0
C_ C_ 0.551378 0.166753 0.601158 0.0
C_ C_ 0.568635 0.18975 0.577069 0.0
C_ C_ 0.633322 0.0354218 0.666679 0.0
C_ C_ 0.664128 0.0438243 0.639246 0.0
C_ C_ 0.373529 0.0289762 0.635207 0.0
C_ C_ 0.40814 0.0431706 0.611414 0.0
C_ C_ 0.384175 0.0635418 0.589408 0.0
C_ C_ 0.670303 0.0677504 0.588526 0.0
C_ C_ 0.642832 0.0619409 0.615176 0.0
C_ C_ 0.413117 0.0917751 0.573089 0.0
C_ C_ 0.665701 0.0963725 0.568943 0.0
C_ C_ 0.416893 0.15354 0.981879 0.0
C_ C_ 0.409559 0.133008 0.519061 0.0
C_ C_ 0.386359 0.144362 0.545784 0.0
C_ C_ 0.378027 0.180601 0.549525 0.0
C_ C_ 0.389147 0.203652 0.525859 0.0
C_ C_ 0.556871 0.207556 0.97999 0.0
C_ C_ 0.566477 0.177042 0.960769 0.0
C_ C_ 0.616216 0.162124 0.960879 0.0
C_ C_ 0.627402 0.133906 0.940009 0.0
C_ C_ 0.586208 0.121734 0.92203 0.0
C_ C_ 0.538766 0.135799 0.921396 0.0
C_ C_ 0.527968 0.163576 0.94006 0.0
C_ C_ 0.513253 0.12643 0.894813 0.0
C_ C_ 0.590187 0.106604 0.89397 0.0
C_ C_ 0.499703 0.0202813 0.842943 0.0
C_ C_ 0.523838 0.0444939 0.863344 0.0
C_ C_ 0.524825 0.0814307 0.856285 0.0
C_ C_ 0.491605 0.0917895 0.833926 0.0
C_ C_ 0.465344 0.0656345 0.815795 0.0
C_ C_ 0.364597 0.21657 0.909069 0.0
C_ C_ 0.337672 0.212674 0.880571 0.0
C_ C_ 0.615939 0.217821 0.88588 0.0
C_ C_ 0.58727 0.210481 0.858561 0.0
C_ C_ 0.612875 0.191956 0.835298 0.0
C_ C_ 0.336912 0.190949 0.828434 0.0
C_ C_ 0.362719 0.193493 0.857565 0.0
C_ C_ 0.585446 0.169051 0.81334 0.0
C_ C_ 0.340516 0.161518 0.810248 0.0
C_ C_ 0.566993 0.092359 0.739422 0.0
C_ C_ 0.584731 0.121833 0.754996 0.0
C_ C_ 0.610498 0.117973 0.783188 0.0
C_ C_ 0.618299 0.0842931 0.793772 0.0
C_ C_ 0.600658 0.0547397 0.776582 0.0
C_ C_ 0.558253 0.459726 0.773748 0.0
C_ C_ 0.568446 0.428694 0.792128 0.0
C_ C_ 0.616149 0.413417 0.791462 0.0
C_ C_ 0.625918 0.382483 0.809326 0.0
C_ C_ 0.583304 0.368572 0.828426 0.0
C_ C_ 0.535627 0.382257 0.82809 0.0
C_ C_ 0.525828 0.411584 0.809228 0.0
C_ C_ 0.512061 0.37574 0.856425 0.0
C_ C_ 0.588179 0.353801 0.856872 0.0
C_ C_ 0.508127 0.270418 0.909857 0.0
C_ C_ 0.527946 0.294332 0.889044 0.0
C_ C_ 0.52462 0.332524 0.895168 0.0
C_ C_ 0.496821 0.343383 0.920427 0.0
C_ C_ 0.46935 0.317064 0.937976 0.0
C_ C_ 0.366373 0.468695 0.837004 0.0
C_ C_ 0.3373 0.459033 0.863494 0.0
C_ C_ 0.613732 0.463871 0.862844 0.0
C_ C_ 0.586393 0.457903 0.890416 0.0
C_ C_ 0.612335 0.443392 0.914823 0.0
C_ C_ 0.32205 0.42647 0.907855 0.0
C_ C_ 0.355341 0.436656 0.884187 0.0
C_ C_ 0.586869 0.420967 0.935922 0.0
C_ C_ 0.321242 0.394743 0.924589 0.0
C_ C_ 0.573738 0.342725 0.510719 0.0
C_ C_ 0.578532 0.374337 0.991728 0.0
C_ C_ 0.606787 0.367926 0.966116 0.0
C_ C_ 0.617344 0.334168 0.95732 0.0
C_ C_ 0.604417 0.306591 0.976315 0.0
C_ C_ 0.448412 0.291914 0.516417 0.0
C_ C_ 0.448206 0.325547 0.532633 0.0
C_ C_ 0.440435 0.357629 0.516716 0.0
C_ C_ 0.445292 0.390063 0.531744 0.0
C_ C_ 0.453736 0.391169 0.562752 0.0
C_ C_ 0.461285 0.360145 0.577382 0.0
C_ C_ 0.459713 0.327714 0.564041 0.0
C_ C_ 0.49614 0.369404 0.601653 0.0
C_ C_ 0.487507 0.417008 0.576025 0.0
C_ C_ 0.503636 0.480322 0.65658 0.0
C_ C_ 0.488735 0.455963 0.633155 0.0
C_ C_ 0.522926 0.428101 0.627016 0.0
C_ C_ 0.562567 0.420545 0.647015 0.0
C_ C_ 0.570967 0.44142 0.672972 0.0
C_ C_ 0.634847 0.286968 0.582626 0.0
C_ C_ 0.665479 0.295132 0.609412 0.0
C_ C_ 0.3674 0.279669 0.618491 0.0
C_ C_ 0.399309 0.287154 0.644727 0.0
C_ C_ 0.396004 0.320157 0.658092 0.0
C_ C_ 0.669365 0.317857 0.660669 0.0
C_ C_ 0.640654 0.311164 0.633323 0.0
C_ C_ 0.409875 0.328501 0.687284 0.0
C_ C_ 0.665855 0.346006 0.679895 0.0
C_ C_ 0.378011 0.417332 0.761488 0.0
C_ C_ 0.364739 0.389245 0.741411 0.0
C_ C_ 0.400543 0.38311 0.718139 0.0
C_ C_ 0.446003 0.406809 0.713365 0.0
C_ C_ 0.454557 0.437199 0.731237 0.0
N_ N_ 0.537134 0.215301 0.567551 0.0
N_ N_ 0.485563 0.152544 0.641093 0.0
N_ N_ 0.380455 0.118954 0.569219 0.0
N_ N_ 0.415997 0.193084 0.501155 0.0
N_ N_ 0.476047 0.0315084 0.817866 0.0
N_ N_ 0.546322 0.109221 0.876493 0.0
N_ N_ 0.621889 0.14818 0.802926 0.0
N_ N_ 0.578679 0.0589659 0.748358 0.0
N_ N_ 0.47759 0.281376 0.933487 0.0
N_ N_ 0.545911 0.358751 0.873731 0.0
N_ N_ 0.62165 0.399092 0.946609 0.0
N_ N_ 0.572564 0.311658 0.000654738 0.0
N_ N_ 0.541721 0.471026 0.678155 0.0
N_ N_ 0.511625 0.404683 0.600551 0.0
N_ N_ 0.383883 0.356893 0.695772 0.0
N_ N_ 0.420335 0.442114 0.754306 0.0
O_ O_ 0.46734 0.01764 0.719874 0.0
O_ O_ 0.411217 0.0356554 0.751791 0.0
O_ O_ 0.49148 0.19583 0.678895 0.0
O_ O_ 0.504196 0.0939377 0.630636 0.0
O_ O_ 0.588417 0.0475245 0.670161 0.0
O_ O_ 0.645799 0.0128293 0.6853 0.0
O_ O_ 0.619583 0.102545 0.556785 0.0
O_ O_ 0.465579 0.096928 0.573035 0.0
O_ O_ 0.532041 0.232303 0.969228 0.0
O_ O_ 0.587891 0.214465 0.499678 0.0
O_ O_ 0.631293 0.0882675 0.886245 0.0
O_ O_ 0.472705 0.143248 0.884898 0.0
O_ O_ 0.41039 0.20571 0.913813 0.0
O_ O_ 0.34972 0.239191 0.928381 0.0
O_ O_ 0.384897 0.148258 0.802262 0.0
O_ O_ 0.545851 0.178951 0.796478 0.0
O_ O_ 0.53437 0.485365 0.784146 0.0
O_ O_ 0.585456 0.465347 0.749569 0.0
O_ O_ 0.634763 0.350944 0.868619 0.0
O_ O_ 0.479141 0.397444 0.868707 0.0
O_ O_ 0.400632 0.447965 0.826724 0.0
O_ O_ 0.358324 0.496439 0.820347 0.0
O_ O_ 0.359311 0.372963 0.925296 0.0
O_ O_ 0.54449 0.430517 0.951823 0.0
O_ O_ 0.473794 0.267155 0.527588 0.0
O_ O_ 0.40255 0.277903 0.995105 0.0
O_ O_ 0.506489 0.445478 0.561941 0.0
O_ O_ 0.502106 0.35002 0.625833 0.0
O_ O_ 0.585194 0.292907 0.581262 0.0
O_ O_ 0.652033 0.269392 0.561564 0.0
O_ O_ 0.620147 0.356129 0.688334 0.0
O_ O_ 0.455125 0.321152 0.698831 0.0
Cd Cd 0.564905 0.510395 0.213628 0.0
Cd Cd 0.43637 0.738187 0.46471 0.0
Cd Cd 0.435218 0.985855 0.285241 0.0
Cd Cd 0.563635 0.761867 0.0352596 0.0
H_ H_ 0.350007 0.578362 0.224194 0.0
H_ H_ 0.67393 0.633842 0.195116 0.0
H_ H_ 0.498237 0.564401 0.179022 0.0
H_ H_ 0.506439 0.757637 0.0996761 0.0
H_ H_ 0.458646 0.714622 0.133605 0.0
H_ H_ 0.498603 0.62939 0.0742558 0.0
H_ H_ 0.537131 0.675082 0.0380038 0.0
H_ H_ 0.403391 0.521202 0.154624 0.0
H_ H_ 0.454852 0.540977 0.110289 0.0
H_ H_ 0.604681 0.57541 0.119148 0.0
H_ H_ 0.437795 0.652816 0.465815 0.0
H_ H_ 0.422694 0.601167 0.99884 0.0
H_ H_ 0.365328 0.671372 0.0666186 0.0
H_ H_ 0.388482 0.722886 0.0328148 0.0
H_ H_ 0.652634 0.675543 0.469833 0.0
H_ H_ 0.322301 0.610964 0.453166 0.0
H_ H_ 0.500934 0.684748 0.429849 0.0
H_ H_ 0.492759 0.988305 0.352667 0.0
H_ H_ 0.542714 0.534132 0.383057 0.0
H_ H_ 0.49885 0.619695 0.325511 0.0
H_ H_ 0.462052 0.574625 0.289355 0.0
H_ H_ 0.596342 0.727884 0.405026 0.0
H_ H_ 0.543108 0.707325 0.360456 0.0
H_ H_ 0.393067 0.672209 0.369931 0.0
H_ H_ 0.551495 0.59629 0.217327 0.0
H_ H_ 0.580258 0.649214 0.248042 0.0
H_ H_ 0.642681 0.579637 0.313469 0.0
H_ H_ 0.613943 0.527361 0.281484 0.0
H_ H_ 0.641299 0.91368 0.269496 0.0
H_ H_ 0.326094 0.859022 0.299584 0.0
H_ H_ 0.497612 0.931863 0.31726 0.0
H_ H_ 0.496733 0.741581 0.401404 0.0
H_ H_ 0.546482 0.784952 0.368282 0.0
H_ H_ 0.501276 0.869469 0.425933 0.0
H_ H_ 0.460821 0.824781 0.460676 0.0
H_ H_ 0.599522 0.982706 0.346687 0.0
H_ H_ 0.550345 0.969785 0.393891 0.0
H_ H_ 0.394665 0.923741 0.380449 0.0
H_ H_ 0.55246 0.846781 0.0329718 0.0
H_ H_ 0.577035 0.898863 0.501108 0.0
H_ H_ 0.639293 0.828939 0.435042 0.0
H_ H_ 0.623095 0.779039 0.471232 0.0
H_ H_ 0.351929 0.83022 0.0229251 0.0
H_ H_ 0.666123 0.874653 0.0634354 0.0
H_ H_ 0.498892 0.815178 0.0702528 0.0
H_ H_ 0.500395 0.508413 0.152338 0.0
H_ H_ 0.455477 0.964791 0.117439 0.0
H_ H_ 0.499181 0.879969 0.175644 0.0
H_ H_ 0.53885 0.925225 0.2109 0.0
H_ H_ 0.402979 0.77026 0.0952161 0.0
H_ H_ 0.455113 0.786785 0.141306 0.0
H_ H_ 0.604364 0.824876 0.131063 0.0
H_ H_ 0.445366 0.903364 0.28328 0.0
H_ H_ 0.423131 0.850974 0.251095 0.0
H_ H_ 0.360554 0.920902 0.185192 0.0
H_ H_ 0.381605 0.971767 0.219611 0.0
C_ C_ 0.43868 0.539998 0.227052 0.0
C_ C_ 0.42932 0.570771 0.207483 0.0
C_ C_ 0.381853 0.588822 0.210019 0.0
C_ C_ 0.372918 0.617352 0.190542 0.0
C_ C_ 0.414437 0.63051 0.171853 0.0
C_ C_ 0.4608 0.613273 0.169669 0.0
C_ C_ 0.466734 0.581574 0.185219 0.0
C_ C_ 0.481436 0.620719 0.141473 0.0
C_ C_ 0.408884 0.648598 0.145016 0.0
C_ C_ 0.497609 0.730298 0.0920919 0.0
C_ C_ 0.472407 0.705623 0.111814 0.0
C_ C_ 0.471479 0.669032 0.105206 0.0
C_ C_ 0.49651 0.658066 0.0790275 0.0
C_ C_ 0.51981 0.683656 0.0593936 0.0
C_ C_ 0.634705 0.53623 0.167278 0.0
C_ C_ 0.665401 0.544726 0.139664 0.0
C_ C_ 0.384406 0.533773 0.136493 0.0
C_ C_ 0.413353 0.541779 0.110068 0.0
C_ C_ 0.387771 0.557109 0.0859562 0.0
C_ C_ 0.669945 0.568029 0.0889766 0.0
C_ C_ 0.642605 0.56379 0.116129 0.0
C_ C_ 0.413024 0.579403 0.0648629 0.0
C_ C_ 0.666112 0.596676 0.0696897 0.0
C_ C_ 0.430381 0.657225 0.489051 0.0
C_ C_ 0.416542 0.62753 0.00700845 0.0
C_ C_ 0.392127 0.632198 0.0347975 0.0
C_ C_ 0.380366 0.666644 0.0436273 0.0
C_ C_ 0.394123 0.695648 0.0247575 0.0
C_ C_ 0.56132 0.710002 0.477052 0.0
C_ C_ 0.57068 0.679229 0.457483 0.0
C_ C_ 0.618147 0.661178 0.460019 0.0
C_ C_ 0.627082 0.632648 0.440542 0.0
C_ C_ 0.585563 0.61949 0.421853 0.0
C_ C_ 0.5392 0.636727 0.419669 0.0
C_ C_ 0.533266 0.668426 0.435219 0.0
C_ C_ 0.518564 0.629281 0.391473 0.0
C_ C_ 0.591116 0.601402 0.395016 0.0
C_ C_ 0.502391 0.519702 0.342092 0.0
C_ C_ 0.527593 0.544377 0.361814 0.0
C_ C_ 0.528521 0.580968 0.355206 0.0
C_ C_ 0.50349 0.591934 0.329027 0.0
C_ C_ 0.48019 0.566344 0.309394 0.0
C_ C_ 0.365295 0.71377 0.417278 0.0
C_ C_ 0.334599 0.705274 0.389664 0.0
C_ C_ 0.615594 0.716227 0.386493 0.0
C_ C_ 0.586647 0.708221 0.360068 0.0
C_ C_ 0.612229 0.692891 0.335956 0.0
C_ C_ 0.330055 0.681971 0.338977 0.0
C_ C_ 0.357395 0.68621 0.366129 0.0
C_ C_ 0.586976 0.670597 0.314863 0.0
C_ C_ 0.333888 0.653324 0.31969 0.0
C_ C_ 0.569619 0.592775 0.239051 0.0
C_ C_ 0.583458 0.62247 0.257008 0.0
C_ C_ 0.607873 0.617802 0.284798 0.0
C_ C_ 0.619634 0.583356 0.293627 0.0
C_ C_ 0.605877 0.554352 0.274758 0.0
C_ C_ 0.56132 0.960002 0.272948 0.0
C_ C_ 0.57068 0.929229 0.292517 0.0
C_ C_ 0.618147 0.911178 0.289981 0.0
C_ C_ 0.627082 0.882648 0.309458 0.0
C_ C_ 0.585563 0.86949 0.328147 0.0
C_ C_ 0.5392 0.886727 0.330331 0.0
C_ C_ 0.533266 0.918426 0.314781 0.0
C_ C_ 0.518564 0.879281 0.358527 0.0
C_ C_ 0.591116 0.851402 0.354984 0.0
C_ C_ 0.502391 0.769702 0.407908 0.0
C_ C_ 0.527593 0.794377 0.388186 0.0
C_ C_ 0.528521 0.830968 0.394794 0.0
C_ C_ 0.50349 0.841934 0.420973 0.0
C_ C_ 0.48019 0.816344 0.440606 0.0
C_ C_ 0.365295 0.96377 0.332722 0.0
C_ C_ 0.334599 0.955274 0.360336 0.0
C_ C_ 0.615594 0.966227 0.363507 0.0
C_ C_ 0.586647 0.958221 0.389932 0.0
C_ C_ 0.612229 0.942891 0.414044 0.0
C_ C_ 0.330055 0.931971 0.411023 0.0
C_ C_ 0.357395 0.93621 0.383871 0.0
C_ C_ 0.586976 0.920597 0.435137 0.0
C_ C_ 0.333888 0.903324 0.43031 0.0
C_ C_ 0.569619 0.842775 0.010949 0.0
C_ C_ 0.583458 0.87247 0.492992 0.0
C_ C_ 0.607873 0.867802 0.465202 0.0
C_ C_ 0.619634 0.833356 0.456373 0.0
C_ C_ 0.605877 0.804352 0.475242 0.0
C_ C_ 0.43868 0.789998 0.0229477 0.0
C_ C_ 0.42932 0.820771 0.0425173 0.0
C_ C_ 0.381853 0.838822 0.0399812 0.0
C_ C_ 0.372918 0.867352 0.0594584 0.0
C_ C_ 0.414437 0.88051 0.0781469 0.0
C_ C_ 0.4608 0.863273 0.0803307 0.0
C_ C_ 0.466734 0.831574 0.0647812 0.0
C_ C_ 0.481436 0.870719 0.108527 0.0
C_ C_ 0.408884 0.898598 0.104984 0.0
C_ C_ 0.497609 0.980298 0.157908 0.0
C_ C_ 0.472407 0.955623 0.138186 0.0
C_ C_ 0.471479 0.919032 0.144794 0.0
C_ C_ 0.49651 0.908066 0.170973 0.0
C_ C_ 0.51981 0.933656 0.190606 0.0
C_ C_ 0.634705 0.78623 0.0827219 0.0
C_ C_ 0.665401 0.794726 0.110336 0.0
C_ C_ 0.384406 0.783773 0.113507 0.0
C_ C_ 0.413353 0.791779 0.139932 0.0
C_ C_ 0.387771 0.807109 0.164044 0.0
C_ C_ 0.669945 0.818029 0.161023 0.0
C_ C_ 0.642605 0.81379 0.133871 0.0
C_ C_ 0.413024 0.829403 0.185137 0.0
C_ C_ 0.666112 0.846676 0.18031 0.0
C_ C_ 0.430381 0.907225 0.260949 0.0
C_ C_ 0.416542 0.87753 0.242992 0.0
C_ C_ 0.392127 0.882198 0.215202 0.0
C_ C_ 0.380366 0.916644 0.206373 0.0
C_ C_ 0.394123 0.945648 0.225242 0.0
N_ N_ 0.519601 0.719087 0.066102 0.0
N_ N_ 0.450277 0.642872 0.126543 0.0
N_ N_ 0.378193 0.601806 0.0536496 0.0
N_ N_ 0.420902 0.690701 0.9986 0.0
N_ N_ 0.480399 0.530913 0.316102 0.0
N_ N_ 0.549723 0.607128 0.376543 0.0
N_ N_ 0.621807 0.648194 0.30365 0.0
N_ N_ 0.579098 0.559299 0.2486 0.0
N_ N_ 0.480399 0.780913 0.433898 0.0
N_ N_ 0.549723 0.857128 0.373457 0.0
N_ N_ 0.621807 0.898194 0.44635 0.0
N_ N_ 0.579098 0.809299 0.5014 0.0
N_ N_ 0.519601 0.969087 0.183898 0.0
N_ N_ 0.450277 0.892872 0.123457 0.0
N_ N_ 0.378193 0.851806 0.19635 0.0
N_ N_ 0.420902 0.940701 0.2514 0.0
O_ O_ 0.465517 0.514997 0.217173 0.0
O_ O_ 0.410651 0.534476 0.250578 0.0
O_ O_ 0.362123 0.655721 0.134274 0.0
O_ O_ 0.532653 0.620132 0.13586 0.0
O_ O_ 0.59232 0.551058 0.172831 0.0
O_ O_ 0.645557 0.510599 0.184197 0.0
O_ O_ 0.620206 0.605994 0.059287 0.0
O_ O_ 0.454156 0.569983 0.0492879 0.0
O_ O_ 0.534483 0.735003 0.467173 0.0
O_ O_ 0.589349 0.715524 0.000578323 0.0
O_ O_ 0.637877 0.594279 0.384274 0.0
O_ O_ 0.467347 0.629868 0.38586 0.0
O_ O_ 0.40768 0.698942 0.422831 0.0
O_ O_ 0.354443 0.739401 0.434197 0.0
O_ O_ 0.379794 0.644007 0.309287 0.0
O_ O_ 0.545844 0.680017 0.299288 0.0
O_ O_ 0.534483 0.985003 0.282827 0.0
O_ O_ 0.589349 0.965524 0.249422 0.0
O_ O_ 0.637877 0.844279 0.365726 0.0
O_ O_ 0.467347 0.879868 0.36414 0.0
O_ O_ 0.40768 0.948942 0.327169 0.0
O_ O_ 0.354443 0.989401 0.315803 0.0
O_ O_ 0.379794 0.894007 0.440713 0.0
O_ O_ 0.545844 0.930017 0.450712 0.0
O_ O_ 0.465517 0.764997 0.032827 0.0
O_ O_ 0.410651 0.784476 0.499422 0.0
O_ O_ 0.362123 0.905721 0.115726 0.0
O_ O_ 0.532653 0.870132 0.11414 0.0
O_ O_ 0.59232 0.801058 0.0771694 0.0
O_ O_ 0.645557 0.760599 0.0658027 0.0
O_ O_ 0.620206 0.855994 0.190713 0.0
O_ O_ 0.454156 0.819983 0.200712 0.0
Cd Cd 0.563502 0.511719 0.71467 0.0
Cd Cd 0.436498 0.738281 0.96467 0.0
Cd Cd 0.436498 0.988281 0.78533 0.0
Cd Cd 0.563502 0.761719 0.53533 0.0
H_ H_ 0.351294 0.579745 0.725897 0.0
H_ H_ 0.668104 0.629013 0.690298 0.0
H_ H_ 0.498892 0.565178 0.679747 0.0
H_ H_ 0.500395 0.758413 0.597662 0.0
H_ H_ 0.455477 0.714791 0.632561 0.0
H_ H_ 0.499181 0.629969 0.574356 0.0
H_ H_ 0.53885 0.675225 0.5391 0.0
H_ H_ 0.402979 0.52026 0.654784 0.0
H_ H_ 0.455113 0.536785 0.608694 0.0
H_ H_ 0.604364 0.574876 0.618937 0.0
H_ H_ 0.445366 0.653364 0.96672 0.0
H_ H_ 0.423131 0.600974 0.498905 0.0
H_ H_ 0.360554 0.670902 0.564808 0.0
H_ H_ 0.381605 0.721767 0.530389 0.0
H_ H_ 0.648706 0.670255 0.975897 0.0
H_ H_ 0.331896 0.620987 0.940298 0.0
H_ H_ 0.501108 0.684822 0.929747 0.0
H_ H_ 0.499605 0.991587 0.847662 0.0
H_ H_ 0.544523 0.535209 0.882561 0.0
H_ H_ 0.500819 0.620031 0.824356 0.0
H_ H_ 0.46115 0.574775 0.7891 0.0
H_ H_ 0.597021 0.72974 0.904784 0.0
H_ H_ 0.544887 0.713215 0.858694 0.0
H_ H_ 0.395636 0.675124 0.868937 0.0
H_ H_ 0.554634 0.596636 0.71672 0.0
H_ H_ 0.576869 0.649026 0.748905 0.0
H_ H_ 0.639446 0.579098 0.814808 0.0
H_ H_ 0.618395 0.528233 0.780389 0.0
H_ H_ 0.648706 0.920255 0.774103 0.0
H_ H_ 0.331896 0.870987 0.809702 0.0
H_ H_ 0.501108 0.934822 0.820253 0.0
H_ H_ 0.499605 0.741587 0.902338 0.0
H_ H_ 0.544523 0.785209 0.867439 0.0
H_ H_ 0.500819 0.870031 0.925644 0.0
H_ H_ 0.46115 0.824775 0.9609 0.0
H_ H_ 0.597021 0.97974 0.845216 0.0
H_ H_ 0.544887 0.963215 0.891306 0.0
H_ H_ 0.395636 0.925124 0.881063 0.0
H_ H_ 0.554634 0.846636 0.53328 0.0
H_ H_ 0.576869 0.899026 0.00109454 0.0
H_ H_ 0.639446 0.829098 0.935192 0.0
H_ H_ 0.618395 0.778233 0.969611 0.0
H_ H_ 0.351294 0.829745 0.524103 0.0
H_ H_ 0.668104 0.879013 0.559702 0.0
H_ H_ 0.498892 0.815178 0.570253 0.0
H_ H_ 0.500395 0.508413 0.652338 0.0
H_ H_ 0.455477 0.964791 0.617439 0.0
H_ H_ 0.499181 0.879969 0.675644 0.0
H_ H_ 0.53885 0.925225 0.7109 0.0
H_ H_ 0.402979 0.77026 0.595216 0.0
H_ H_ 0.455113 0.786785 0.641306 0.0
H_ H_ 0.604364 0.824876 0.631063 0.0
H_ H_ 0.445366 0.903364 0.78328 0.0
H_ H_ 0.423131 0.850974 0.751095 0.0
H_ H_ 0.360554 0.920902 0.685192 0.0
H_ H_ 0.381605 0.971767 0.719611 0.0
C_ C_ 0.43868 0.539998 0.727052 0.0
C_ C_ 0.42932 0.570771 0.707483 0.0
C_ C_ 0.381853 0.588822 0.710019 0.0
C_ C_ 0.372918 0.617352 0.690542 0.0
C_ C_ 0.414437 0.63051 0.671853 0.0
C_ C_ 0.4608 0.613273 0.669669 0.0
C_ C_ 0.466734 0.581574 0.685219 0.0
C_ C_ 0.481436 0.620719 0.641473 0.0
C_ C_ 0.408884 0.648598 0.645016 0.0
C_ C_ 0.497609 0.730298 0.592092 0.0
C_ C_ 0.472407 0.705623 0.611814 0.0
C_ C_ 0.471479 0.669032 0.605206 0.0
C_ C_ 0.49651 0.658066 0.579027 0.0
C_ C_ 0.51981 0.683656 0.559394 0.0
C_ C_ 0.634705 0.53623 0.667278 0.0
C_ C_ 0.665401 0.544726 0.639664 0.0
C_ C_ 0.384406 0.533773 0.636493 0.0
C_ C_ 0.413353 0.541779 0.610068 0.0
C_ C_ 0.387771 0.557109 0.585956 0.0
C_ C_ 0.669945 0.568029 0.588977 0.0
C_ C_ 0.642605 0.56379 0.616129 0.0
C_ C_ 0.413024 0.579403 0.564863 0.0
C_ C_ 0.666112 0.596676 0.56969 0.0
C_ C_ 0.430381 0.657225 0.989051 0.0
C_ C_ 0.416542 0.62753 0.507008 0.0
C_ C_ 0.392127 0.632198 0.534798 0.0
C_ C_ 0.380366 0.666644 0.543627 0.0
C_ C_ 0.394123 0.695648 0.524758 0.0
C_ C_ 0.56132 0.710002 0.977052 0.0
C_ C_ 0.57068 0.679229 0.957483 0.0
C_ C_ 0.618147 0.661178 0.960019 0.0
C_ C_ 0.627082 0.632648 0.940542 0.0
C_ C_ 0.585563 0.61949 0.921853 0.0
C_ C_ 0.5392 0.636727 0.919669 0.0
C_ C_ 0.533266 0.668426 0.935219 0.0
C_ C_ 0.518564 0.629281 0.891473 0.0
C_ C_ 0.591116 0.601402 0.895016 0.0
C_ C_ 0.502391 0.519702 0.842092 0.0
C_ C_ 0.527593 0.544377 0.861814 0.0
C_ C_ 0.528521 0.580968 0.855206 0.0
C_ C_ 0.50349 0.591934 0.829027 0.0
C_ C_ 0.48019 0.566344 0.809394 0.0
C_ C_ 0.365295 0.71377 0.917278 0.0
C_ C_ 0.334599 0.705274 0.889664 0.0
C_ C_ 0.615594 0.716227 0.886493 0.0
C_ C_ 0.586647 0.708221 0.860068 0.0
C_ C_ 0.612229 0.692891 0.835956 0.0
C_ C_ 0.330055 0.681971 0.838977 0.0
C_ C_ 0.357395 0.68621 0.866129 0.0
C_ C_ 0.586976 0.670597 0.814863 0.0
C_ C_ 0.333888 0.653324 0.81969 0.0
C_ C_ 0.569619 0.592775 0.739051 0.0
C_ C_ 0.583458 0.62247 0.757008 0.0
C_ C_ 0.607873 0.617802 0.784798 0.0
C_ C_ 0.619634 0.583356 0.793627 0.0
C_ C_ 0.605877 0.554352 0.774758 0.0
C_ C_ 0.56132 0.960002 0.772948 0.0
C_ C_ 0.57068 0.929229 0.792517 0.0
C_ C_ 0.618147 0.911178 0.789981 0.0
C_ C_ 0.627082 0.882648 0.809458 0.0
C_ C_ 0.585563 0.86949 0.828147 0.0
C_ C_ 0.5392 0.886727 0.830331 0.0
C_ C_ 0.533266 0.918426 0.814781 0.0
C_ C_ 0.518564 0.879281 0.858527 0.0
C_ C_ 0.591116 0.851402 0.854984 0.0
C_ C_ 0.502391 0.769702 0.907908 0.0
C_ C_ 0.527593 0.794377 0.888186 0.0
C_ C_ 0.528521 0.830968 0.894794 0.0
C_ C_ 0.50349 0.841934 0.920973 0.0
C_ C_ 0.48019 0.816344 0.940606 0.0
C_ C_ 0.365295 0.96377 0.832722 0.0
C_ C_ 0.334599 0.955274 0.860336 0.0
C_ C_ 0.615594 0.966227 0.863507 0.0
C_ C_ 0.586647 0.958221 0.889932 0.0
C_ C_ 0.612229 0.942891 0.914044 0.0
C_ C_ 0.330055 0.931971 0.911023 0.0
C_ C_ 0.357395 0.93621 0.883871 0.0
C_ C_ 0.586976 0.920597 0.935137 0.0
C_ C_ 0.333888 0.903324 0.93031 0.0
C_ C_ 0.569619 0.842775 0.510949 0.0
C_ C_ 0.583458 0.87247 0.992992 0.0
C_ C_ 0.607873 0.867802 0.965202 0.0
C_ C_ 0.619634 0.833356 0.956373 0.0
C_ C_ 0.605877 0.804352 0.975242 0.0
C_ C_ 0.43868 0.789998 0.522948 0.0
C_ C_ 0.42932 0.820771 0.542517 0.0
C_ C_ 0.381853 0.838822 0.539981 0.0
C_ C_ 0.372918 0.867352 0.559458 0.0
C_ C_ 0.414437 0.88051 0.578147 0.0
C_ C_ 0.4608 0.863273 0.580331 0.0
C_ C_ 0.466734 0.831574 0.564781 0.0
C_ C_ 0.481436 0.870719 0.608527 0.0
C_ C_ 0.408884 0.898598 0.604984 0.0
C_ C_ 0.497609 0.980298 0.657908 0.0
C_ C_ 0.472407 0.955623 0.638186 0.0
C_ C_ 0.471479 0.919032 0.644794 0.0
C_ C_ 0.49651 0.908066 0.670973 0.0
C_ C_ 0.51981 0.933656 0.690606 0.0
C_ C_ 0.634705 0.78623 0.582722 0.0
C_ C_ 0.665401 0.794726 0.610336 0.0
C_ C_ 0.384406 0.783773 0.613507 0.0
C_ C_ 0.413353 0.791779 0.639932 0.0
C_ C_ 0.387771 0.807109 0.664044 0.0
C_ C_ 0.669945 0.818029 0.661023 0.0
C_ C_ 0.642605 0.81379 0.633871 0.0
C_ C_ 0.413024 0.829403 0.685137 0.0
C_ C_ 0.666112 0.846676 0.68031 0.0
C_ C_ 0.430381 0.907225 0.760949 0.0
C_ C_ 0.416542 0.87753 0.742992 0.0
C_ C_ 0.392127 0.882198 0.715202 0.0
C_ C_ 0.380366 0.916644 0.706373 0.0
C_ C_ 0.394123 0.945648 0.725242 0.0
N_ N_ 0.519601 0.719087 0.566102 0.0
N_ N_ 0.450277 0.642872 0.626543 0.0
N_ N_ 0.378193 0.601806 0.55365 0.0
N_ N_ 0.420902 0.690701 0.4986 0.0
N_ N_ 0.480399 0.530913 0.816102 0.0
N_ N_ 0.549723 0.607128 0.876543 0.0
N_ N_ 0.621807 0.648194 0.80365 0.0
N_ N_ 0.579098 0.559299 0.7486 0.0
N_ N_ 0.480399 0.780913 0.933898 0.0
N_ N_ 0.549723 0.857128 0.873457 0.0
N_ N_ 0.621807 0.898194 0.94635 0.0
N_ N_ 0.579098 0.809299 0.00139979 0.0
N_ N_ 0.519601 0.969087 0.683898 0.0
N_ N_ 0.450277 0.892872 0.623457 0.0
N_ N_ 0.378193 0.851806 0.69635 0.0
N_ N_ 0.420902 0.940701 0.7514 0.0
O_ O_ 0.465517 0.514997 0.717173 0.0
O_ O_ 0.410651 0.534476 0.750578 0.0
O_ O_ 0.362123 0.655721 0.634274 0.0
O_ O_ 0.532653 0.620132 0.63586 0.0
O_ O_ 0.59232 0.551058 0.672831 0.0
O_ O_ 0.645557 0.510599 0.684197 0.0
O_ O_ 0.620206 0.605994 0.559287 0.0
O_ O_ 0.454156 0.569983 0.549288 0.0
O_ O_ 0.534483 0.735003 0.967173 0.0
O_ O_ 0.589349 0.715524 0.500578 0.0
O_ O_ 0.637877 0.594279 0.884274 0.0
O_ O_ 0.467347 0.629868 0.88586 0.0
O_ O_ 0.40768 0.698942 0.922831 0.0
O_ O_ 0.354443 0.739401 0.934197 0.0
O_ O_ 0.379794 0.644007 0.809287 0.0
O_ O_ 0.545844 0.680017 0.799288 0.0
O_ O_ 0.534483 0.985003 0.782827 0.0
O_ O_ 0.589349 0.965524 0.749422 0.0
O_ O_ 0.637877 0.844279 0.865726 0.0
O_ O_ 0.467347 0.879868 0.86414 0.0
O_ O_ 0.40768 0.948942 0.827169 0.0
O_ O_ 0.354443 0.989401 0.815803 0.0
O_ O_ 0.379794 0.894007 0.940713 0.0
O_ O_ 0.545844 0.930017 0.950712 0.0
O_ O_ 0.465517 0.764997 0.532827 0.0
O_ O_ 0.410651 0.784476 0.999422 0.0
O_ O_ 0.362123 0.905721 0.615726 0.0
O_ O_ 0.532653 0.870132 0.61414 0.0
O_ O_ 0.59232 0.801058 0.577169 0.0
O_ O_ 0.645557 0.760599 0.565803 0.0
O_ O_ 0.620206 0.855994 0.690713 0.0
O_ O_ 0.454156 0.819983 0.700712 0.0
Cd Cd 0.896835 0.0117191 0.21467 0.0
Cd Cd 0.769832 0.238281 0.46467 0.0
Cd Cd 0.769832 0.488281 0.28533 0.0
Cd Cd 0.896835 0.261719 0.0353296 0.0
H_ H_ 0.684627 0.0797452 0.225897 0.0
H_ H_ 0.00143726 0.129013 0.190298 0.0
H_ H_ 0.832225 0.0651784 0.179747 0.0
H_ H_ 0.833728 0.258413 0.0976618 0.0
H_ H_ 0.78881 0.214791 0.132561 0.0
H_ H_ 0.832514 0.129969 0.0743557 0.0
H_ H_ 0.872183 0.175225 0.0391002 0.0
H_ H_ 0.736312 0.0202596 0.154784 0.0
H_ H_ 0.788447 0.0367846 0.108694 0.0
H_ H_ 0.937697 0.0748764 0.118937 0.0
H_ H_ 0.778699 0.153364 0.46672 0.0
H_ H_ 0.756465 0.100974 0.998905 0.0
H_ H_ 0.693888 0.170902 0.0648075 0.0
H_ H_ 0.714938 0.221767 0.0303887 0.0
H_ H_ 0.98204 0.170255 0.475897 0.0
H_ H_ 0.665229 0.120987 0.440298 0.0
H_ H_ 0.834442 0.184822 0.429747 0.0
H_ H_ 0.832939 0.491587 0.347662 0.0
H_ H_ 0.877857 0.035209 0.382561 0.0
H_ H_ 0.834153 0.120031 0.324356 0.0
H_ H_ 0.794483 0.0747749 0.2891 0.0
H_ H_ 0.930355 0.22974 0.404784 0.0
H_ H_ 0.87822 0.213215 0.358694 0.0
H_ H_ 0.728969 0.175124 0.368937 0.0
H_ H_ 0.887968 0.0966362 0.21672 0.0
H_ H_ 0.910202 0.149026 0.248905 0.0
H_ H_ 0.972779 0.0790981 0.314808 0.0
H_ H_ 0.951728 0.0282328 0.280389 0.0
H_ H_ 0.98204 0.420255 0.274103 0.0
H_ H_ 0.665229 0.370987 0.309702 0.0
H_ H_ 0.834442 0.434822 0.320253 0.0
H_ H_ 0.832939 0.241587 0.402338 0.0
H_ H_ 0.877857 0.285209 0.367439 0.0
H_ H_ 0.834153 0.370031 0.425644 0.0
H_ H_ 0.794483 0.324775 0.4609 0.0
H_ H_ 0.930355 0.47974 0.345216 0.0
H_ H_ 0.87822 0.463215 0.391306 0.0
H_ H_ 0.728969 0.425124 0.381063 0.0
H_ H_ 0.887968 0.346636 0.0332805 0.0
H_ H_ 0.910202 0.399026 0.501095 0.0
H_ H_ 0.972779 0.329098 0.435192 0.0
H_ H_ 0.951728 0.278233 0.469611 0.0
H_ H_ 0.684627 0.329745 0.0241033 0.0
H_ H_ 0.00143727 0.379013 0.0597022 0.0
H_ H_ 0.832225 0.315178 0.0702528 0.0
H_ H_ 0.833728 0.00841344 0.152338 0.0
H_ H_ 0.78881 0.464791 0.117439 0.0
H_ H_ 0.832514 0.379969 0.175644 0.0
H_ H_ 0.872183 0.425225 0.2109 0.0
H_ H_ 0.736312 0.27026 0.0952161 0.0
H_ H_ 0.788447 0.286785 0.141306 0.0
H_ H_ 0.937697 0.324876 0.131063 0.0
H_ H_ 0.778699 0.403364 0.28328 0.0
H_ H_ 0.756465 0.350974 0.251095 0.0
H_ H_ 0.693888 0.420902 0.185192 0.0
H_ H_ 0.714938 0.471767 0.219611 0.0
C_ C_ 0.772014 0.0399984 0.227052 0.0
C_ C_ 0.762653 0.0707715 0.207483 0.0
C_ C_ 0.715187 0.0888219 0.210019 0.0
C_ C_ 0.706251 0.117352 0.190542 0.0
C_ C_ 0.747771 0.13051 0.171853 0.0
C_ C_ 0.794133 0.113273 0.169669 0.0
C_ C_ 0.800068 0.0815736 0.185219 0.0
C_ C_ 0.814769 0.120719 0.141473 0.0
C_ C_ 0.742217 0.148598 0.145016 0.0
C_ C_ 0.830943 0.230298 0.0920919 0.0
C_ C_ 0.80574 0.205623 0.111814 0.0
C_ C_ 0.804812 0.169032 0.105206 0.0
C_ C_ 0.829843 0.158066 0.0790275 0.0
C_ C_ 0.853144 0.183656 0.0593936 0.0
C_ C_ 0.968039 0.0362297 0.167278 0.0
C_ C_ 0.998734 0.0447258 0.139664 0.0
C_ C_ 0.717739 0.0337728 0.136493 0.0
C_ C_ 0.746686 0.0417792 0.110068 0.0
C_ C_ 0.721104 0.0571085 0.0859562 0.0
C_ C_ 0.00327862 0.0680289 0.0889766 0.0
C_ C_ 0.975938 0.0637899 0.116129 0.0
C_ C_ 0.746357 0.0794027 0.0648629 0.0
C_ C_ 0.999445 0.0966762 0.0696897 0.0
C_ C_ 0.763715 0.157225 0.489051 0.0
C_ C_ 0.749875 0.12753 0.00700845 0.0
C_ C_ 0.725461 0.132198 0.0347975 0.0
C_ C_ 0.713699 0.166644 0.0436273 0.0
C_ C_ 0.727456 0.195648 0.0247575 0.0
C_ C_ 0.894653 0.210002 0.477052 0.0
C_ C_ 0.904014 0.179229 0.457483 0.0
C_ C_ 0.95148 0.161178 0.460019 0.0
C_ C_ 0.960415 0.132648 0.440542 0.0
C_ C_ 0.918896 0.11949 0.421853 0.0
C_ C_ 0.872534 0.136727 0.419669 0.0
C_ C_ 0.866599 0.168426 0.435219 0.0
C_ C_ 0.851898 0.129281 0.391473 0.0
C_ C_ 0.924449 0.101402 0.395016 0.0
C_ C_ 0.835724 0.0197024 0.342092 0.0
C_ C_ 0.860926 0.044377 0.361814 0.0
C_ C_ 0.861855 0.0809681 0.355206 0.0
C_ C_ 0.836823 0.0919345 0.329027 0.0
C_ C_ 0.813523 0.0663441 0.309394 0.0
C_ C_ 0.698628 0.21377 0.417278 0.0
C_ C_ 0.667933 0.205274 0.389664 0.0
C_ C_ 0.948927 0.216227 0.386493 0.0
C_ C_ 0.91998 0.208221 0.360068 0.0
C_ C_ 0.945562 0.192891 0.335956 0.0
C_ C_ 0.663388 0.181971 0.338977 0.0
C_ C_ 0.690729 0.18621 0.366129 0.0
C_ C_ 0.92031 0.170597 0.314863 0.0
C_ C_ 0.667221 0.153324 0.31969 0.0
C_ C_ 0.902952 0.0927748 0.239051 0.0
C_ C_ 0.916792 0.12247 0.257008 0.0
C_ C_ 0.941206 0.117802 0.284798 0.0
C_ C_ 0.952968 0.0833558 0.293627 0.0
C_ C_ 0.93921 0.0543523 0.274758 0.0
C_ C_ 0.894653 0.460002 0.272948 0.0
C_ C_ 0.904014 0.429229 0.292517 0.0
C_ C_ 0.95148 0.411178 0.289981 0.0
C_ C_ 0.960415 0.382648 0.309458 0.0
C_ C_ 0.918896 0.36949 0.328147 0.0
C_ C_ 0.872534 0.386727 0.330331 0.0
C_ C_ 0.866599 0.418426 0.314781 0.0
C_ C_ 0.851898 0.379281 0.358527 0.0
C_ C_ 0.924449 0.351402 0.354984 0.0
C_ C_ 0.835724 0.269702 0.407908 0.0
C_ C_ 0.860926 0.294377 0.388186 0.0
C_ C_ 0.861855 0.330968 0.394794 0.0
C_ C_ 0.836823 0.341934 0.420973 0.0
C_ C_ 0.813523 0.316344 0.440606 0.0
C_ C_ 0.698628 0.46377 0.332722 0.0
C_ C_ 0.667933 0.455274 0.360336 0.0
C_ C_ 0.948927 0.466227 0.363507 0.0
C_ C_ 0.91998 0.458221 0.389932 0.0
C_ C_ 0.945562 0.442891 0.414044 0.0
C_ C_ 0.663388 0.431971 0.411023 0.0
C_ C_ 0.690729 0.43621 0.383871 0.0
C_ C_ 0.92031 0.420597 0.435137 0.0
C_ C_ 0.667221 0.403324 0.43031 0.0
C_ C_ 0.902952 0.342775 0.010949 0.0
C_ C_ 0.916792 0.37247 0.492992 0.0
C_ C_ 0.941206 0.367802 0.465202 0.0
C_ C_ 0.952968 0.333356 0.456373 0.0
C_ C_ 0.93921 0.304352 0.475242 0.0
C_ C_ 0.772014 0.289998 0.0229477 0.0
C_ C_ 0.762653 0.320771 0.0425173 0.0
C_ C_ 0.715187 0.338822 0.0399812 0.0
C_ C_ 0.706251 0.367352 0.0594584 0.0
C_ C_ 0.747771 0.38051 0.0781469 0.0
C_ C_ 0.794133 0.363273 0.0803307 0.0
C_ C_ 0.800068 0.331574 0.0647813 0.0
C_ C_ 0.814769 0.370719 0.108527 0.0
C_ C_ 0.742217 0.398598 0.104984 0.0
C_ C_ 0.830943 0.480298 0.157908 0.0
C_ C_ 0.80574 0.455623 0.138186 0.0
C_ C_ 0.804812 0.419032 0.144794 0.0
C_ C_ 0.829843 0.408066 0.170973 0.0
C_ C_ 0.853144 0.433656 0.190606 0.0
C_ C_ 0.968039 0.28623 0.0827219 0.0
C_ C_ 0.998734 0.294726 0.110336 0.0
C_ C_ 0.717739 0.283773 0.113507 0.0
C_ C_ 0.746686 0.291779 0.139932 0.0
C_ C_ 0.721104 0.307109 0.164044 0.0
C_ C_ 0.00327863 0.318029 0.161023 0.0
C_ C_ 0.975938 0.31379 0.133871 0.0
C_ C_ 0.746357 0.329403 0.185137 0.0
C_ C_ 0.999445 0.346676 0.18031 0.0
C_ C_ 0.763715 0.407225 0.260949 0.0
C_ C_ 0.749875 0.37753 0.242992 0.0
C_ C_ 0.725461 0.382198 0.215202 0.0
C_ C_ 0.713699 0.416644 0.206373 0.0
C_ C_ 0.727456 0.445648 0.225242 0.0
N_ N_ 0.852935 0.219087 0.066102 0.0
N_ N_ 0.783611 0.142872 0.126543 0.0
N_ N_ 0.711527 0.101806 0.0536496 0.0
N_ N_ 0.754235 0.190701 0.9986 0.0
N_ N_ 0.813732 0.030913 0.316102 0.0
N_ N_ 0.883056 0.107128 0.376543 0.0
N_ N_ 0.95514 0.148194 0.30365 0.0
N_ N_ 0.912431 0.0592986 0.2486 0.0
N_ N_ 0.813732 0.280913 0.433898 0.0
N_ N_ 0.883056 0.357128 0.373457 0.0
N_ N_ 0.95514 0.398194 0.44635 0.0
N_ N_ 0.912431 0.309299 0.5014 0.0
N_ N_ 0.852935 0.469087 0.183898 0.0
N_ N_ 0.783611 0.392872 0.123457 0.0
N_ N_ 0.711527 0.351806 0.19635 0.0
N_ N_ 0.754235 0.440701 0.2514 0.0
O_ O_ 0.79885 0.0149975 0.217173 0.0
O_ O_ 0.743984 0.0344756 0.250578 0.0
O_ O_ 0.695457 0.155721 0.134274 0.0
O_ O_ 0.865986 0.120132 0.13586 0.0
O_ O_ 0.925653 0.0510577 0.172831 0.0
O_ O_ 0.978891 0.0105991 0.184197 0.0
O_ O_ 0.95354 0.105994 0.059287 0.0
O_ O_ 0.78749 0.0699826 0.0492879 0.0
O_ O_ 0.867816 0.235003 0.467173 0.0
O_ O_ 0.922682 0.215524 0.000578323 0.0
O_ O_ 0.97121 0.094279 0.384274 0.0
O_ O_ 0.80068 0.129868 0.38586 0.0
O_ O_ 0.741013 0.198942 0.422831 0.0
O_ O_ 0.687776 0.239401 0.434197 0.0
O_ O_ 0.713127 0.144006 0.309287 0.0
O_ O_ 0.879177 0.180017 0.299288 0.0
O_ O_ 0.867816 0.485003 0.282827 0.0
O_ O_ 0.922682 0.465524 0.249422 0.0
O_ O_ 0.97121 0.344279 0.365726 0.0
O_ O_ 0.80068 0.379868 0.36414 0.0
O_ O_ 0.741013 0.448942 0.327169 0.0
O_ O_ 0.687776 0.489401 0.315803 0.0
O_ O_ 0.713127 0.394006 0.440713 0.0
O_ O_ 0.879177 0.430017 0.450712 0.0
O_ O_ 0.79885 0.264997 0.032827 0.0
O_ O_ 0.743984 0.284476 0.499422 0.0
O_ O_ 0.695457 0.405721 0.115726 0.0
O_ O_ 0.865986 0.370132 0.11414 0.0
O_ O_ 0.925653 0.301058 0.0771694 0.0
O_ O_ 0.978891 0.260599 0.0658027 0.0
O_ O_ 0.95354 0.355994 0.190713 0.0
O_ O_ 0.78749 0.319983 0.200712 0.0
Cd Cd 0.896835 0.0117191 0.71467 0.0
Cd Cd 0.769832 0.238281 0.96467 0.0
Cd Cd 0.769832 0.488281 0.78533 0.0
Cd Cd 0.896835 0.261719 0.53533 0.0
H_ H_ 0.684627 0.0797452 0.725897 0.0
H_ H_ 0.00143726 0.129013 0.690298 0.0
H_ H_ 0.832225 0.0651784 0.679747 0.0
H_ H_ 0.833728 0.258413 0.597662 0.0
H_ H_ 0.78881 0.214791 0.632561 0.0
H_ H_ 0.832514 0.129969 0.574356 0.0
H_ H_ 0.872183 0.175225 0.5391 0.0
H_ H_ 0.736312 0.0202596 0.654784 0.0
H_ H_ 0.788447 0.0367846 0.608694 0.0
H_ H_ 0.937697 0.0748764 0.618937 0.0
H_ H_ 0.778699 0.153364 0.96672 0.0
H_ H_ 0.756465 0.100974 0.498905 0.0
H_ H_ 0.693888 0.170902 0.564808 0.0
H_ H_ 0.714938 0.221767 0.530389 0.0
H_ H_ 0.98204 0.170255 0.975897 0.0
H_ H_ 0.665229 0.120987 0.940298 0.0
H_ H_ 0.834442 0.184822 0.929747 0.0
H_ H_ 0.832939 0.491587 0.847662 0.0
H_ H_ 0.877857 0.035209 0.882561 0.0
H_ H_ 0.834153 0.120031 0.824356 0.0
H_ H_ 0.794483 0.0747749 0.7891 0.0
H_ H_ 0.930355 0.22974 0.904784 0.0
H_ H_ 0.87822 0.213215 0.858694 0.0
H_ H_ 0.728969 0.175124 0.868937 0.0
H_ H_ 0.887968 0.0966362 0.71672 0.0
H_ H_ 0.910202 0.149026 0.748905 0.0
H_ H_ 0.972779 0.0790981 0.814808 0.0
H_ H_ 0.951728 0.0282328 0.780389 0.0
H_ H_ 0.98204 0.420255 0.774103 0.0
H_ H_ 0.665229 0.370987 0.809702 0.0
H_ H_ 0.834442 0.434822 0.820253 0.0
H_ H_ 0.832939 0.241587 0.902338 0.0
H_ H_ 0.877857 0.285209 0.867439 0.0
H_ H_ 0.834153 0.370031 0.925644 0.0
H_ H_ 0.794483 0.324775 0.9609 0.0
H_ H_ 0.930355 0.47974 0.845216 0.0
H_ H_ 0.87822 0.463215 0.891306 0.0
H_ H_ 0.728969 0.425124 0.881063 0.0
H_ H_ 0.887968 0.346636 0.53328 0.0
H_ H_ 0.910202 0.399026 0.00109454 0.0
H_ H_ 0.972779 0.329098 0.935192 0.0
H_ H_ 0.951728 0.278233 0.969611 0.0
H_ H_ 0.684627 0.329745 0.524103 0.0
H_ H_ 0.00143727 0.379013 0.559702 0.0
H_ H_ 0.832225 0.315178 0.570253 0.0
H_ H_ 0.833728 0.00841344 0.652338 0.0
H_ H_ 0.78881 0.464791 0.617439 0.0
H_ H_ 0.832514 0.379969 0.675644 0.0
H_ H_ 0.872183 0.425225 0.7109 0.0
H_ H_ 0.736312 0.27026 0.595216 0.0
H_ H_ 0.788447 0.286785 0.641306 0.0
H_ H_ 0.937697 0.324876 0.631063 0.0
H_ H_ 0.778699 0.403364 0.78328 0.0
H_ H_ 0.756465 0.350974 0.751095 0.0
H_ H_ 0.693888 0.420902 0.685192 0.0
H_ H_ 0.714938 0.471767 0.719611 0.0
C_ C_ 0.772014 0.0399984 0.727052 0.0
C_ C_ 0.762653 0.0707715 0.707483 0.0
C_ C_ 0.715187 0.0888219 0.710019 0.0
C_ C_ 0.706251 0.117352 0.690542 0.0
C_ C_ 0.747771 0.13051 0.671853 0.0
C_ C_ 0.794133 0.113273 0.669669 0.0
C_ C_ 0.800068 0.0815736 0.685219 0.0
C_ C_ 0.814769 0.120719 0.641473 0.0
C_ C_ 0.742217 0.148598 0.645016 0.0
C_ C_ 0.830943 0.230298 0.592092 0.0
C_ C_ 0.80574 0.205623 0.611814 0.0
C_ C_ 0.804812 0.169032 0.605206 0.0
C_ C_ 0.829843 0.158066 0.579027 0.0
C_ C_ 0.853144 0.183656 0.559394 0.0
C_ C_ 0.968039 0.0362297 0.667278 0.0
C_ C_ 0.998734 0.0447258 0.639664 0.0
C_ C_ 0.717739 0.0337728 0.636493 0.0
C_ C_ 0.746686 0.0417792 0.610068 0.0
C_ C_ 0.721104 0.0571085 0.585956 0.0
C_ C_ 0.00327862 0.0680289 0.588977 0.0
C_ C_ 0.975938 0.0637899 0.616129 0.0
C_ C_ 0.746357 0.0794027 0.564863 0.0
C_ C_ 0.999445 0.0966762 0.56969 0.0
C_ C_ 0.763715 0.157225 0.989051 0.0
C_ C_ 0.749875 0.12753 0.507008 0.0
C_ C_ 0.725461 0.132198 0.534798 0.0
C_ C_ 0.713699 0.166644 0.543627 0.0
C_ C_ 0.727456 0.195648 0.524758 0.0
C_ C_ 0.894653 0.210002 0.977052 0.0
C_ C_ 0.904014 0.179229 0.957483 0.0
C_ C_ 0.95148 0.161178 0.960019 0.0
C_ C_ 0.960415 0.132648 0.940542 0.0
C_ C_ 0.918896 0.11949 0.921853 0.0
C_ C_ 0.872534 0.136727 0.919669 0.0
C_ C_ 0.866599 0.168426 0.935219 0.0
C_ C_ 0.851898 0.129281 0.891473 0.0
C_ C_ 0.924449 0.101402 0.895016 0.0
C_ C_ 0.835724 0.0197024 0.842092 0.0
C_ C_ 0.860926 0.044377 0.861814 0.0
C_ C_ 0.861855 0.0809681 0.855206 0.0
C_ C_ 0.836823 0.0919345 0.829027 0.0
C_ C_ 0.813523 0.0663441 0.809394 0.0
C_ C_ 0.698628 0.21377 0.917278 0.0
C_ C_ 0.667933 0.205274 0.889664 0.0
C_ C_ 0.948927 0.216227 0.886493 0.0
C_ C_ 0.91998 0.208221 0.860068 0.0
C_ C_ 0.945562 0.192891 0.835956 0.0
C_ C_ 0.663388 0.181971 0.838977 0.0
C_ C_ 0.690729 0.18621 0.866129 0.0
C_ C_ 0.92031 0.170597 0.814863 0.0
C_ C_ 0.667221 0.153324 0.81969 0.0
C_ C_ 0.902952 0.0927748 0.739051 0.0
C_ C_ 0.916792 0.12247 0.757008 0.0
C_ C_ 0.941206 0.117802 0.784798 0.0
C_ C_ 0.952968 0.0833558 0.793627 0.0
C_ C_ 0.93921 0.0543523 0.774758 0.0
C_ C_ 0.894653 0.460002 0.772948 0.0
C_ C_ 0.904014 0.429229 0.792517 0.0
C_ C_ 0.95148 0.411178 0.789981 0.0
C_ C_ 0.960415 0.382648 0.809458 0.0
C_ C_ 0.918896 0.36949 0.828147 0.0
C_ C_ 0.872534 0.386727 0.830331 0.0
C_ C_ 0.866599 0.418426 0.814781 0.0
C_ C_ 0.851898 0.379281 0.858527 0.0
C_ C_ 0.924449 0.351402 0.854984 0.0
C_ C_ 0.835724 0.269702 0.907908 0.0
C_ C_ 0.860926 0.294377 0.888186 0.0
C_ C_ 0.861855 0.330968 0.894794 0.0
C_ C_ 0.836823 0.341934 0.920973 0.0
C_ C_ 0.813523 0.316344 0.940606 0.0
C_ C_ 0.698628 0.46377 0.832722 0.0
C_ C_ 0.667933 0.455274 0.860336 0.0
C_ C_ 0.948927 0.466227 0.863507 0.0
C_ C_ 0.91998 0.458221 0.889932 0.0
C_ C_ 0.945562 0.442891 0.914044 0.0
C_ C_ 0.663388 0.431971 0.911023 0.0
C_ C_ 0.690729 0.43621 0.883871 0.0
C_ C_ 0.92031 0.420597 0.935137 0.0
C_ C_ 0.667221 0.403324 0.93031 0.0
C_ C_ 0.902952 0.342775 0.510949 0.0
C_ C_ 0.916792 0.37247 0.992992 0.0
C_ C_ 0.941206 0.367802 0.965202 0.0
C_ C_ 0.952968 0.333356 0.956373 0.0
C_ C_ 0.93921 0.304352 0.975242 0.0
C_ C_ 0.772014 0.289998 0.522948 0.0
C_ C_ 0.762653 0.320771 0.542517 0.0
C_ C_ 0.715187 0.338822 0.539981 0.0
C_ C_ 0.706251 0.367352 0.559458 0.0
C_ C_ 0.747771 0.38051 0.578147 0.0
C_ C_ 0.794133 0.363273 0.580331 0.0
C_ C_ 0.800068 0.331574 0.564781 0.0
C_ C_ 0.814769 0.370719 0.608527 0.0
C_ C_ 0.742217 0.398598 0.604984 0.0
C_ C_ 0.830943 0.480298 0.657908 0.0
C_ C_ 0.80574 0.455623 0.638186 0.0
C_ C_ 0.804812 0.419032 0.644794 0.0
C_ C_ 0.829843 0.408066 0.670973 0.0
C_ C_ 0.853144 0.433656 0.690606 0.0
C_ C_ 0.968039 0.28623 0.582722 0.0
C_ C_ 0.998734 0.294726 0.610336 0.0
C_ C_ 0.717739 0.283773 0.613507 0.0
C_ C_ 0.746686 0.291779 0.639932 0.0
C_ C_ 0.721104 0.307109 0.664044 0.0
C_ C_ 0.00327863 0.318029 0.661023 0.0
C_ C_ 0.975938 0.31379 0.633871 0.0
C_ C_ 0.746357 0.329403 0.685137 0.0
C_ C_ 0.999445 0.346676 0.68031 0.0
C_ C_ 0.763715 0.407225 0.760949 0.0
C_ C_ 0.749875 0.37753 0.742992 0.0
C_ C_ 0.725461 0.382198 0.715202 0.0
C_ C_ 0.713699 0.416644 0.706373 0.0
C_ C_ 0.727456 0.445648 0.725242 0.0
N_ N_ 0.852935 0.219087 0.566102 0.0
N_ N_ 0.783611 0.142872 0.626543 0.0
N_ N_ 0.711527 0.101806 0.55365 0.0
N_ N_ 0.754235 0.190701 0.4986 0.0
N_ N_ 0.813732 0.030913 0.816102 0.0
N_ N_ 0.883056 0.107128 0.876543 0.0
N_ N_ 0.95514 0.148194 0.80365 0.0
N_ N_ 0.912431 0.0592986 0.7486 0.0
N_ N_ 0.813732 0.280913 0.933898 0.0
N_ N_ 0.883056 0.357128 0.873457 0.0
N_ N_ 0.95514 0.398194 0.94635 0.0
N_ N_ 0.912431 0.309299 0.00139979 0.0
N_ N_ 0.852935 0.469087 0.683898 0.0
N_ N_ 0.783611 0.392872 0.623457 0.0
N_ N_ 0.711527 0.351806 0.69635 0.0
N_ N_ 0.754235 0.440701 0.7514 0.0
O_ O_ 0.79885 0.0149975 0.717173 0.0
O_ O_ 0.743984 0.0344756 0.750578 0.0
O_ O_ 0.695457 0.155721 0.634274 0.0
O_ O_ 0.865986 0.120132 0.63586 0.0
O_ O_ 0.925653 0.0510577 0.672831 0.0
O_ O_ 0.978891 0.0105991 0.684197 0.0
O_ O_ 0.95354 0.105994 0.559287 0.0
O_ O_ 0.78749 0.0699826 0.549288 0.0
O_ O_ 0.867816 0.235003 0.967173 0.0
O_ O_ 0.922682 0.215524 0.500578 0.0
O_ O_ 0.97121 0.094279 0.884274 0.0
O_ O_ 0.80068 0.129868 0.88586 0.0
O_ O_ 0.741013 0.198942 0.922831 0.0
O_ O_ 0.687776 0.239401 0.934197 0.0
O_ O_ 0.713127 0.144006 0.809287 0.0
O_ O_ 0.879177 0.180017 0.799288 0.0
O_ O_ 0.867816 0.485003 0.782827 0.0
O_ O_ 0.922682 0.465524 0.749422 0.0
O_ O_ 0.97121 0.344279 0.865726 0.0
O_ O_ 0.80068 0.379868 0.86414 0.0
O_ O_ 0.741013 0.448942 0.827169 0.0
O_ O_ 0.687776 0.489401 0.815803 0.0
O_ O_ 0.713127 0.394006 0.940713 0.0
O_ O_ 0.879177 0.430017 0.950712 0.0
O_ O_ 0.79885 0.264997 0.532827 0.0
O_ O_ 0.743984 0.284476 0.999422 0.0
O_ O_ 0.695457 0.405721 0.615726 0.0
O_ O_ 0.865986 0.370132 0.61414 0.0
O_ O_ 0.925653 0.301058 0.577169 0.0
O_ O_ 0.978891 0.260599 0.565803 0.0
O_ O_ 0.95354 0.355994 0.690713 0.0
O_ O_ 0.78749 0.319983 0.700712 0.0
Cd Cd 0.896835 0.511719 0.21467 0.0
Cd Cd 0.769832 0.738281 0.46467 0.0
Cd Cd 0.769832 0.988281 0.28533 0.0
Cd Cd 0.896835 0.761719 0.0353296 0.0
H_ H_ 0.684627 0.579745 0.225897 0.0
H_ H_ 0.00143727 0.629013 0.190298 0.0
H_ H_ 0.832225 0.565178 0.179747 0.0
H_ H_ 0.833728 0.758413 0.0976618 0.0
H_ H_ 0.78881 0.714791 0.132561 0.0
H_ H_ 0.832514 0.629969 0.0743557 0.0
H_ H_ 0.872183 0.675225 0.0391002 0.0
H_ H_ 0.736312 0.52026 0.154784 0.0
H_ H_ 0.788447 0.536785 0.108694 0.0
H_ H_ 0.937697 0.574876 0.118937 0.0
H_ H_ 0.778699 0.653364 0.46672 0.0
H_ H_ 0.756465 0.600974 0.998905 0.0
H_ H_ 0.693888 0.670902 0.0648075 0.0
H_ H_ 0.714938 0.721767 0.0303887 0.0
H_ H_ 0.98204 0.670255 0.475897 0.0
H_ H_ 0.665229 0.620987 0.440298 0.0
H_ H_ 0.834442 0.684822 0.429747 0.0
H_ H_ 0.832939 0.991587 0.347662 0.0
H_ H_ 0.877857 0.535209 0.382561 0.0
H_ H_ 0.834153 0.620031 0.324356 0.0
H_ H_ 0.794483 0.574775 0.2891 0.0
H_ H_ 0.930355 0.72974 0.404784 0.0
H_ H_ 0.87822 0.713215 0.358694 0.0
H_ H_ 0.728969 0.675124 0.368937 0.0
H_ H_ 0.887968 0.596636 0.21672 0.0
H_ H_ 0.910202 0.649026 0.248905 0.0
H_ H_ 0.972779 0.579098 0.314808 0.0
H_ H_ 0.951728 0.528233 0.280389 0.0
H_ H_ 0.98204 0.920255 0.274103 0.0
H_ H_ 0.665229 0.870987 0.309702 0.0
H_ H_ 0.834442 0.934822 0.320253 0.0
H_ H_ 0.832939 0.741587 0.402338 0.0
H_ H_ 0.877857 0.785209 0.367439 0.0
H_ H_ 0.834153 0.870031 0.425644 0.0
H_ H_ 0.794483 0.824775 0.4609 0.0
H_ H_ 0.930355 0.97974 0.345216 0.0
H_ H_ 0.87822 0.963215 0.391306 0.0
H_ H_ 0.728969 0.925124 0.381063 0.0
H_ H_ 0.887968 0.846636 0.0332805 0.0
H_ H_ 0.910202 0.899026 0.501095 0.0
H_ H_ 0.972779 0.829098 0.435192 0.0
H_ H_ 0.951728 0.778233 0.469611 0.0
H_ H_ 0.684627 0.829745 0.0241033 0.0
H_ H_ 0.00143726 0.879013 0.0597022 0.0
H_ H_ 0.832225 0.815178 0.0702528 0.0
H_ H_ 0.833728 0.508413 0.152338 0.0
H_ H_ 0.78881 0.964791 0.117439 0.0
H_ H_ 0.832514 0.879969 0.175644 0.0
H_ H_ 0.872183 0.925225 0.2109 0.0
H_ H_ 0.736312 0.77026 0.0952161 0.0
H_ H_ 0.788447 0.786785 0.141306 0.0
H_ H_ 0.937697 0.824876 0.131063 0.0
H_ H_ 0.778699 0.903364 0.28328 0.0
H_ H_ 0.756465 0.850974 0.251095 0.0
H_ H_ 0.693888 0.920902 0.185192 0.0
H_ H_ 0.714938 0.971767 0.219611 0.0
C_ C_ 0.772014 0.539998 0.227052 0.0
C_ C_ 0.762653 0.570771 0.207483 0.0
C_ C_ 0.715187 0.588822 0.210019 0.0
C_ C_ 0.706251 0.617352 0.190542 0.0
C_ C_ 0.747771 0.63051 0.171853 0.0
C_ C_ 0.794133 0.613273 0.169669 0.0
C_ C_ 0.800068 0.581574 0.185219 0.0
C_ C_ 0.814769 0.620719 0.141473 0.0
C_ C_ 0.742217 0.648598 0.145016 0.0
C_ C_ 0.830943 0.730298 0.0920919 0.0
C_ C_ 0.80574 0.705623 0.111814 0.0
C_ C_ 0.804812 0.669032 0.105206 0.0
C_ C_ 0.829843 0.658066 0.0790275 0.0
C_ C_ 0.853144 0.683656 0.0593936 0.0
C_ C_ 0.968039 0.53623 0.167278 0.0
C_ C_ 0.998734 0.544726 0.139664 0.0
C_ C_ 0.717739 0.533773 0.136493 0.0
C_ C_ 0.746686 0.541779 0.110068 0.0
C_ C_ 0.721104 0.557109 0.0859562 0.0
C_ C_ 0.00327863 0.568029 0.0889766 0.0
C_ C_ 0.975938 0.56379 0.116129 0.0
C_ C_ 0.746357 0.579403 0.0648629 0.0
C_ C_ 0.999445 0.596676 0.0696897 0.0
C_ C_ 0.763715 0.657225 0.489051 0.0
C_ C_ 0.749875 0.62753 0.00700845 0.0
C_ C_ 0.725461 0.632198 0.0347975 0.0
C_ C_ 0.713699 0.666644 0.0436273 0.0
C_ C_ 0.727456 0.695648 0.0247575 0.0
C_ C_ 0.894653 0.710002 0.477052 0.0
C_ C_ 0.904014 0.679229 0.457483 0.0
C_ C_ 0.95148 0.661178 0.460019 0.0
C_ C_ 0.960415 0.632648 0.440542 0.0
C_ C_ 0.918896 0.61949 0.421853 0.0
C_ C_ 0.872534 0.636727 0.419669 0.0
C_ C_ 0.866599 0.668426 0.435219 0.0
C_ C_ 0.851898 0.629281 0.391473 0.0
C_ C_ 0.924449 0.601402 0.395016 0.0
C_ C_ 0.835724 0.519702 0.342092 0.0
C_ C_ 0.860926 0.544377 0.361814 0.0
C_ C_ 0.861855 0.580968 0.355206 0.0
C_ C_ 0.836823 0.591934 0.329027 0.0
C_ C_ 0.813523 0.566344 0.309394 0.0
C_ C_ 0.698628 0.71377 0.417278 0.0
C_ C_ 0.667933 0.705274 0.389664 0.0
C_ C_ 0.948927 0.716227 0.386493 0.0
C_ C_ 0.91998 0.708221 0.360068 0.0
C_ C_ 0.945562 0.692891 0.335956 0.0
C_ C_ 0.663388 0.681971 0.338977 0.0
C_ C_ 0.690729 0.68621 0.366129 0.0
C_ C_ 0.92031 0.670597 0.314863 0.0
C_ C_ 0.667221 0.653324 0.31969 0.0
C_ C_ 0.902952 0.592775 0.239051 0.0
C_ C_ 0.916792 0.62247 0.257008 0.0
C_ C_ 0.941206 0.617802 0.284798 0.0
C_ C_ 0.952968 0.583356 0.293627 0.0
C_ C_ 0.93921 0.554352 0.274758 0.0
C_ C_ 0.894653 0.960002 0.272948 0.0
C_ C_ 0.904014 0.929229 0.292517 0.0
C_ C_ 0.95148 0.911178 0.289981 0.0
C_ C_ 0.960415 0.882648 0.309458 0.0
C_ C_ 0.918896 0.86949 0.328147 0.0
C_ C_ 0.872534 0.886727 0.330331 0.0
C_ C_ 0.866599 0.918426 0.314781 0.0
C_ C_ 0.851898 0.879281 0.358527 0.0
C_ C_ 0.924449 0.851402 0.354984 0.0
C_ C_ 0.835724 0.769702 0.407908 0.0
C_ C_ 0.860926 0.794377 0.388186 0.0
C_ C_ 0.861855 0.830968 0.394794 0.0
C_ C_ 0.836823 0.841934 0.420973 0.0
C_ C_ 0.813523 0.816344 0.440606 0.0
C_ C_ 0.698628 0.96377 0.332722 0.0
C_ C_ 0.667933 0.955274 0.360336 0.0
C_ C_ 0.948927 0.966227 0.363507 0.0
C_ C_ 0.91998 0.958221 0.389932 0.0
C_ C_ 0.945562 0.942891 0.414044 0.0
C_ C_ 0.663388 0.931971 0.411023 0.0
C_ C_ 0.690729 0.93621 0.383871 0.0
C_ C_ 0.92031 0.920597 0.435137 0.0
C_ C_ 0.667221 0.903324 0.43031 0.0
C_ C_ 0.902952 0.842775 0.010949 0.0
C_ C_ 0.916792 0.87247 0.492992 0.0
C_ C_ 0.941206 0.867802 0.465202 0.0
C_ C_ 0.952968 0.833356 0.456373 0.0
C_ C_ 0.93921 0.804352 0.475242 0.0
C_ C_ 0.772014 0.789998 0.0229477 0.0
C_ C_ 0.762653 0.820771 0.0425173 0.0
C_ C_ 0.715187 0.838822 0.0399812 0.0
C_ C_ 0.706251 0.867352 0.0594584 0.0
C_ C_ 0.747771 0.88051 0.0781469 0.0
C_ C_ 0.794133 0.863273 0.0803307 0.0
C_ C_ 0.800068 0.831574 0.0647812 0.0
C_ C_ 0.814769 0.870719 0.108527 0.0
C_ C_ 0.742217 0.898598 0.104984 0.0
C_ C_ 0.830943 0.980298 0.157908 0.0
C_ C_ 0.80574 0.955623 0.138186 0.0
C_ C_ 0.804812 0.919032 0.144794 0.0
C_ C_ 0.829843 0.908066 0.170973 0.0
C_ C_ 0.853144 0.933656 0.190606 0.0
C_ C_ 0.968039 0.78623 0.0827219 0.0
C_ C_ 0.998734 0.794726 0.110336 0.0
C_ C_ 0.717739 0.783773 0.113507 0.0
C_ C_ 0.746686 0.791779 0.139932 0.0
C_ C_ 0.721104 0.807109 0.164044 0.0
C_ C_ 0.00327862 0.818029 0.161023 0.0
C_ C_ 0.975938 0.81379 0.133871 0.0
C_ C_ 0.746357 0.829403 0.185137 0.0
C_ C_ 0.999445 0.846676 0.18031 0.0
C_ C_ 0.763715 0.907225 0.260949 0.0
C_ C_ 0.749875 0.87753 0.242992 0.0
C_ C_ 0.725461 0.882198 0.215202 0.0
C_ C_ 0.713699 0.916644 0.206373 0.0
C_ C_ 0.727456 0.945648 0.225242 0.0
N_ N_ 0.852935 0.719087 0.066102 0.0
N_ N_ 0.783611 0.642872 0.126543 0.0
N_ N_ 0.711527 0.601806 0.0536496 0.0
N_ N_ 0.754235 0.690701 0.9986 0.0
N_ N_ 0.813732 0.530913 0.316102 0.0
N_ N_ 0.883056 0.607128 0.376543 0.0
N_ N_ 0.95514 0.648194 0.30365 0.0
N_ N_ 0.912431 0.559299 0.2486 0.0
N_ N_ 0.813732 0.780913 0.433898 0.0
N_ N_ 0.883056 0.857128 0.373457 0.0
N_ N_ 0.95514 0.898194 0.44635 0.0
N_ N_ 0.912431 0.809299 0.5014 0.0
N_ N_ 0.852935 0.969087 0.183898 0.0
N_ N_ 0.783611 0.892872 0.123457 0.0
N_ N_ 0.711527 0.851806 0.19635 0.0
N_ N_ 0.754235 0.940701 0.2514 0.0
O_ O_ 0.79885 0.514997 0.217173 0.0
O_ O_ 0.743984 0.534476 0.250578 0.0
O_ O_ 0.695457 0.655721 0.134274 0.0
O_ O_ 0.865986 0.620132 0.13586 0.0
O_ O_ 0.925653 0.551058 0.172831 0.0
O_ O_ 0.978891 0.510599 0.184197 0.0
O_ O_ 0.95354 0.605994 0.059287 0.0
O_ O_ 0.78749 0.569983 0.0492879 0.0
O_ O_ 0.867816 0.735003 0.467173 0.0
O_ O_ 0.922682 0.715524 0.000578323 0.0
O_ O_ 0.97121 0.594279 0.384274 0.0
O_ O_ 0.80068 0.629868 0.38586 0.0
O_ O_ 0.741013 0.698942 0.422831 0.0
O_ O_ 0.687776 0.739401 0.434197 0.0
O_ O_ 0.713127 0.644007 0.309287 0.0
O_ O_ 0.879177 0.680017 0.299288 0.0
O_ O_ 0.867816 0.985003 0.282827 0.0
O_ O_ 0.922682 0.965524 0.249422 0.0
O_ O_ 0.97121 0.844279 0.365726 0.0
O_ O_ 0.80068 0.879868 0.36414 0.0
O_ O_ 0.741013 0.948942 0.327169 0.0
O_ O_ 0.687776 0.989401 0.315803 0.0
O_ O_ 0.713127 0.894007 0.440713 0.0
O_ O_ 0.879177 0.930017 0.450712 0.0
O_ O_ 0.79885 0.764997 0.032827 0.0
O_ O_ 0.743984 0.784476 0.499422 0.0
O_ O_ 0.695457 0.905721 0.115726 0.0
O_ O_ 0.865986 0.870132 0.11414 0.0
O_ O_ 0.925653 0.801058 0.0771694 0.0
O_ O_ 0.978891 0.760599 0.0658027 0.0
O_ O_ 0.95354 0.855994 0.190713 0.0
O_ O_ 0.78749 0.819983 0.200712 0.0
Cd Cd 0.896835 0.511719 0.71467 0.0
Cd Cd 0.769832 0.738281 0.96467 0.0
Cd Cd 0.769832 0.988281 0.78533 0.0
Cd Cd 0.896835 0.761719 0.53533 0.0
H_ H_ 0.684627 0.579745 0.725897 0.0
H_ H_ 0.00143727 0.629013 0.690298 0.0
H_ H_ 0.832225 0.565178 0.679747 0.0
H_ H_ 0.833728 0.758413 0.597662 0.0
H_ H_ 0.78881 0.714791 0.632561 0.0
H_ H_ 0.832514 0.629969 0.574356 0.0
H_ H_ 0.872183 0.675225 0.5391 0.0
H_ H_ 0.736312 0.52026 0.654784 0.0
H_ H_ 0.788447 0.536785 0.608694 0.0
H_ H_ 0.937697 0.574876 0.618937 0.0
H_ H_ 0.778699 0.653364 0.96672 0.0
H_ H_ 0.756465 0.600974 0.498905 0.0
H_ H_ 0.693888 0.670902 0.564808 0.0
H_ H_ 0.714938 0.721767 0.530389 0.0
H_ H_ 0.98204 0.670255 0.975897 0.0
H_ H_ 0.665229 0.620987 0.940298 0.0
H_ H_ 0.834442 0.684822 0.929747 0.0
H_ H_ 0.832939 0.991587 0.847662 0.0
H_ H_ 0.877857 0.535209 0.882561 0.0
H_ H_ 0.834153 0.620031 0.824356 0.0
H_ H_ 0.794483 0.574775 0.7891 0.0
H_ H_ 0.930355 0.72974 0.904784 0.0
H_ H_ 0.87822 0.713215 0.858694 0.0
H_ H_ 0.728969 0.675124 0.868937 0.0
H_ H_ 0.887968 0.596636 0.71672 0.0
H_ H_ 0.910202 0.649026 0.748905 0.0
H_ H_ 0.972779 0.579098 0.814808 0.0
H_ H_ 0.951728 0.528233 0.780389 0.0
H_ H_ 0.98204 0.920255 0.774103 0.0
H_ H_ 0.665229 0.870987 0.809702 0.0
H_ H_ 0.834442 0.934822 0.820253 0.0
H_ H_ 0.832939 0.741587 0.902338 0.0
H_ H_ 0.877857 0.785209 0.867439 0.0
H_ H_ 0.834153 0.870031 0.925644 0.0
H_ H_ 0.794483 0.824775 0.9609 0.0
H_ H_ 0.930355 0.97974 0.845216 0.0
H_ H_ 0.87822 0.963215 0.891306 0.0
H_ H_ 0.728969 0.925124 0.881063 0.0
H_ H_ 0.887968 0.846636 0.53328 0.0
H_ H_ 0.910202 0.899026 0.00109454 0.0
H_ H_ 0.972779 0.829098 0.935192 0.0
H_ H_ 0.951728 0.778233 0.969611 0.0
H_ H_ 0.684627 0.829745 0.524103 0.0
H_ H_ 0.00143726 0.879013 0.559702 0.0
H_ H_ 0.832225 0.815178 0.570253 0.0
H_ H_ 0.833728 0.508413 0.652338 0.0
H_ H_ 0.78881 0.964791 0.617439 0.0
H_ H_ 0.832514 0.879969 0.675644 0.0
H_ H_ 0.872183 0.925225 0.7109 0.0
H_ H_ 0.736312 0.77026 0.595216 0.0
H_ H_ 0.788447 0.786785 0.641306 0.0
H_ H_ 0.937697 0.824876 0.631063 0.0
H_ H_ 0.778699 0.903364 0.78328 0.0
H_ H_ 0.756465 0.850974 0.751095 0.0
H_ H_ 0.693888 0.920902 0.685192 0.0
H_ H_ 0.714938 0.971767 0.719611 0.0
C_ C_ 0.772014 0.539998 0.727052 0.0
C_ C_ 0.762653 0.570771 0.707483 0.0
C_ C_ 0.715187 0.588822 0.710019 0.0
C_ C_ 0.706251 0.617352 0.690542 0.0
C_ C_ 0.747771 0.63051 0.671853 0.0
C_ C_ 0.794133 0.613273 0.669669 0.0
C_ C_ 0.800068 0.581574 0.685219 0.0
C_ C_ 0.814769 0.620719 0.641473 0.0
C_ C_ 0.742217 0.648598 0.645016 0.0
C_ C_ 0.830943 0.730298 0.592092 0.0
C_ C_ 0.80574 0.705623 0.611814 0.0
C_ C_ 0.804812 0.669032 0.605206 0.0
C_ C_ 0.829843 0.658066 0.579027 0.0
C_ C_ 0.853144 0.683656 0.559394 0.0
C_ C_ 0.968039 0.53623 0.667278 0.0
C_ C_ 0.998734 0.544726 0.639664 0.0
C_ C_ 0.717739 0.533773 0.636493 0.0
C_ C_ 0.746686 0.541779 0.610068 0.0
C_ C_ 0.721104 0.557109 0.585956 0.0
C_ C_ 0.00327863 0.568029 0.588977 0.0
C_ C_ 0.975938 0.56379 0.616129 0.0
C_ C_ 0.746357 0.579403 0.564863 0.0
C_ C_ 0.999445 0.596676 0.56969 0.0
C_ C_ 0.763715 0.657225 0.989051 0.0
C_ C_ 0.749875 0.62753 0.507008 0.0
C_ C_ 0.725461 0.632198 0.534798 0.0
C_ C_ 0.713699 0.666644 0.543627 0.0
C_ C_ 0.727456 0.695648 0.524758 0.0
C_ C_ 0.894653 0.710002 0.977052 0.0
C_ C_ 0.904014 0.679229 0.957483 0.0
C_ C_ 0.95148 0.661178 0.960019 0.0
C_ C_ 0.960415 0.632648 0.940542 0.0
C_ C_ 0.918896 0.61949 0.921853 0.0
C_ C_ 0.872534 0.636727 0.919669 0.0
C_ C_ 0.866599 0.668426 0.935219 0.0
C_ C_ 0.851898 0.629281 0.891473 0.0
C_ C_ 0.924449 0.601402 0.895016 0.0
C_ C_ 0.835724 0.519702 0.842092 0.0
C_ C_ 0.860926 0.544377 0.861814 0.0
C_ C_ 0.861855 0.580968 0.855206 0.0
C_ C_ 0.836823 0.591934 0.829027 0.0
C_ C_ 0.813523 0.566344 0.809394 0.0
C_ C_ 0.698628 0.71377 0.917278 0.0
C_ C_ 0.667933 0.705274 0.889664 0.0
C_ C_ 0.948927 0.716227 0.886493 0.0
C_ C_ 0.91998 0.708221 0.860068 0.0
C_ C_ 0.945562 0.692891 0.835956 0.0
C_ C_ 0.663388 0.681971 0.838977 0.0
C_ C_ 0.690729 0.68621 0.866129 0.0
C_ C_ 0.92031 0.670597 0.814863 0.0
C_ C_ 0.667221 0.653324 0.81969 0.0
C_ C_ 0.902952 0.592775 0.739051 0.0
C_ C_ 0.916792 0.62247 0.757008 0.0
C_ C_ 0.941206 0.617802 0.784798 0.0
C_ C_ 0.952968 0.583356 0.793627 0.0
C_ C_ 0.93921 0.554352 0.774758 0.0
C_ C_ 0.894653 0.960002 0.772948 0.0
C_ C_ 0.904014 0.929229 0.792517 0.0
C_ C_ 0.95148 0.911178 0.789981 0.0
C_ C_ 0.960415 0.882648 0.809458 0.0
C_ C_ 0.918896 0.86949 0.828147 0.0
C_ C_ 0.872534 0.886727 0.830331 0.0
C_ C_ 0.866599 0.918426 0.814781 0.0
C_ C_ 0.851898 0.879281 0.858527 0.0
C_ C_ 0.924449 0.851402 0.854984 0.0
C_ C_ 0.835724 0.769702 0.907908 0.0
C_ C_ 0.860926 0.794377 0.888186 0.0
C_ C_ 0.861855 0.830968 0.894794 0.0
C_ C_ 0.836823 0.841934 0.920973 0.0
C_ C_ 0.813523 0.816344 0.940606 0.0
C_ C_ 0.698628 0.96377 0.832722 0.0
C_ C_ 0.667933 0.955274 0.860336 0.0
C_ C_ 0.948927 0.966227 0.863507 0.0
C_ C_ 0.91998 0.958221 0.889932 0.0
C_ C_ 0.945562 0.942891 0.914044 0.0
C_ C_ 0.663388 0.931971 0.911023 0.0
C_ C_ 0.690729 0.93621 0.883871 0.0
C_ C_ 0.92031 0.920597 0.935137 0.0
C_ C_ 0.667221 0.903324 0.93031 0.0
C_ C_ 0.902952 0.842775 0.510949 0.0
C_ C_ 0.916792 0.87247 0.992992 0.0
C_ C_ 0.941206 0.867802 0.965202 0.0
C_ C_ 0.952968 0.833356 0.956373 0.0
C_ C_ 0.93921 0.804352 0.975242 0.0
C_ C_ 0.772014 0.789998 0.522948 0.0
C_ C_ 0.762653 0.820771 0.542517 0.0
C_ C_ 0.715187 0.838822 0.539981 0.0
C_ C_ 0.706251 0.867352 0.559458 0.0
C_ C_ 0.747771 0.88051 0.578147 0.0
C_ C_ 0.794133 0.863273 0.580331 0.0
C_ C_ 0.800068 0.831574 0.564781 0.0
C_ C_ 0.814769 0.870719 0.608527 0.0
C_ C_ 0.742217 0.898598 0.604984 0.0
C_ C_ 0.830943 0.980298 0.657908 0.0
C_ C_ 0.80574 0.955623 0.638186 0.0
C_ C_ 0.804812 0.919032 0.644794 0.0
C_ C_ 0.829843 0.908066 0.670973 0.0
C_ C_ 0.853144 0.933656 0.690606 0.0
C_ C_ 0.968039 0.78623 0.582722 0.0
C_ C_ 0.998734 0.794726 0.610336 0.0
C_ C_ 0.717739 0.783773 0.613507 0.0
C_ C_ 0.746686 0.791779 0.639932 0.0
C_ C_ 0.721104 0.807109 0.664044 0.0
C_ C_ 0.00327862 0.818029 0.661023 0.0
C_ C_ 0.975938 0.81379 0.633871 0.0
C_ C_ 0.746357 0.829403 0.685137 0.0
C_ C_ 0.999445 0.846676 0.68031 0.0
C_ C_ 0.763715 0.907225 0.760949 0.0
C_ C_ 0.749875 0.87753 0.742992 0.0
C_ C_ 0.725461 0.882198 0.715202 0.0
C_ C_ 0.713699 0.916644 0.706373 0.0
C_ C_ 0.727456 0.945648 0.725242 0.0
N_ N_ 0.852935 0.719087 0.566102 0.0
N_ N_ 0.783611 0.642872 0.626543 0.0
N_ N_ 0.711527 0.601806 0.55365 0.0
N_ N_ 0.754235 0.690701 0.4986 0.0
N_ N_ 0.813732 0.530913 0.816102 0.0
N_ N_ 0.883056 0.607128 0.876543 0.0
N_ N_ 0.95514 0.648194 0.80365 0.0
N_ N_ 0.912431 0.559299 0.7486 0.0
N_ N_ 0.813732 0.780913 0.933898 0.0
N_ N_ 0.883056 0.857128 0.873457 0.0
N_ N_ 0.95514 0.898194 0.94635 0.0
N_ N_ 0.912431 0.809299 0.00139979 0.0
N_ N_ 0.852935 0.969087 0.683898 0.0
N_ N_ 0.783611 0.892872 0.623457 0.0
N_ N_ 0.711527 0.851806 0.69635 0.0
N_ N_ 0.754235 0.940701 0.7514 0.0
O_ O_ 0.79885 0.514997 0.717173 0.0
O_ O_ 0.743984 0.534476 0.750578 0.0
O_ O_ 0.695457 0.655721 0.634274 0.0
O_ O_ 0.865986 0.620132 0.63586 0.0
O_ O_ 0.925653 0.551058 0.672831 0.0
O_ O_ 0.978891 0.510599 0.684197 0.0
O_ O_ 0.95354 0.605994 0.559287 0.0
O_ O_ 0.78749 0.569983 0.549288 0.0
O_ O_ 0.867816 0.735003 0.967173 0.0
O_ O_ 0.922682 0.715524 0.500578 0.0
O_ O_ 0.97121 0.594279 0.884274 0.0
O_ O_ 0.80068 0.629868 0.88586 0.0
O_ O_ 0.741013 0.698942 0.922831 0.0
O_ O_ 0.687776 0.739401 0.934197 0.0
O_ O_ 0.713127 0.644007 0.809287 0.0
O_ O_ 0.879177 0.680017 0.799288 0.0
O_ O_ 0.867816 0.985003 0.782827 0.0
O_ O_ 0.922682 0.965524 0.749422 0.0
O_ O_ 0.97121 0.844279 0.865726 0.0
O_ O_ 0.80068 0.879868 0.86414 0.0
O_ O_ 0.741013 0.948942 0.827169 0.0
O_ O_ 0.687776 0.989401 0.815803 0.0
O_ O_ 0.713127 0.894007 0.940713 0.0
O_ O_ 0.879177 0.930017 0.950712 0.0
O_ O_ 0.79885 0.764997 0.532827 0.0
O_ O_ 0.743984 0.784476 0.999422 0.0
O_ O_ 0.695457 0.905721 0.615726 0.0
O_ O_ 0.865986 0.870132 0.61414 0.0
O_ O_ 0.925653 0.801058 0.577169 0.0
O_ O_ 0.978891 0.760599 0.565803 0.0
O_ O_ 0.95354 0.855994 0.690713 0.0
O_ O_ 0.78749 0.819983 0.700712 0.0
