_cell_length_a 36.02
_cell_length_b 33.49800028078418
_cell_length_c 33.344000006687516
_cell_angle_alpha 108.44700031432194
_cell_angle_beta 90.0
_cell_angle_gamma 113.780000006536
_symmetry_space_group_name_H-M         'P 1'
_symmetry_Int_Tables_number            1
loop_
_symmetry_equiv_pos_as_xyz
   'x, y, z'
                         
loop_
_atom_site_label
_atom_site_type_symbol
_atom_site_fract_x 
_atom_site_fract_y
_atom_site_fract_z
_atom_site_charge
Zn Zn 0.0350529 0.224511 0.359251 0.0
Zn Zn 0.11962 0.112318 0.3899 0.0
Zn Zn 0.221854 0.107853 0.140701 0.0
Zn Zn 0.137279 0.220357 0.113674 0.0
Zn Zn 0.0564281 0.332595 0.375952 0.0
Zn Zn 0.195014 0.332549 0.125169 0.0
H_ H_ 0.215218 0.163458 0.241472 0.0
H_ H_ 0.187274 0.283078 0.204433 0.0
H_ H_ 0.223029 0.3015 0.277422 0.0
H_ H_ 0.16439 0.0945938 0.0324486 0.0
H_ H_ 0.136559 0.136453 0.0655132 0.0
H_ H_ 0.120031 0.0621225 0.107721 0.0
H_ H_ 0.0946414 0.100521 0.123548 0.0
H_ H_ 0.0872349 0.0606684 0.0668431 0.0
H_ H_ 0.0919062 0.298446 0.419914 0.0
H_ H_ 0.100957 0.154708 0.020596 0.0
H_ H_ 0.224927 0.0466814 0.0512968 0.0
H_ H_ 0.249059 0.0268438 0.485767 0.0
H_ H_ 0.0987286 0.224874 0.214165 0.0
H_ H_ 0.033204 0.194869 0.191575 0.0
H_ H_ 0.0613352 0.267086 0.14355 0.0
H_ H_ 0.00931647 0.229678 0.147572 0.0
H_ H_ 0.0463828 0.275804 0.193608 0.0
H_ H_ 0.116357 0.0384155 0.330462 0.0
H_ H_ 0.0291219 0.161846 0.268227 0.0
H_ H_ 0.0674361 0.051068 0.300611 0.0
H_ H_ 0.0250707 0.0249886 0.233152 0.0
H_ H_ 0.0843496 0.233306 0.472353 0.0
H_ H_ 0.114481 0.194717 0.439403 0.0
H_ H_ 0.146098 0.275854 0.402708 0.0
H_ H_ 0.163283 0.232875 0.393921 0.0
H_ H_ 0.16781 0.269693 0.446678 0.0
H_ H_ 0.166572 0.0343313 0.0813589 0.0
H_ H_ 0.154983 0.174763 0.483665 0.0
H_ H_ 0.0218697 0.289003 0.446803 0.0
H_ H_ 0.0052008 0.308189 0.0182532 0.0
H_ H_ 0.160779 0.115914 0.288373 0.0
H_ H_ 0.223004 0.146634 0.313668 0.0
H_ H_ 0.200439 0.0672497 0.355475 0.0
H_ H_ 0.247148 0.099775 0.350493 0.0
H_ H_ 0.212346 0.0613535 0.303158 0.0
H_ H_ 0.131082 0.299302 0.160336 0.0
C_ C_ 0.216709 0.19085 0.229667 0.0
C_ C_ 0.000705547 0.253763 0.298318 0.0
C_ C_ 0.228203 0.235965 0.261203 0.0
C_ C_ 0.191839 0.255404 0.212433 0.0
C_ C_ 0.192358 0.179809 0.192907 0.0
C_ C_ 0.1723 0.15902 0.125459 0.0
C_ C_ 0.176824 0.208914 0.185291 0.0
C_ C_ 0.21535 0.26833 0.252696 0.0
C_ C_ 0.147206 0.120581 0.0850967 0.0
C_ C_ 0.109802 0.082843 0.0966442 0.0
C_ C_ 0.0705401 0.134848 0.0254819 0.0
C_ C_ 0.0608265 0.0792758 0.451834 0.0
C_ C_ 0.0461152 0.0929809 0.493752 0.0
C_ C_ 0.249421 0.0713531 0.0420594 0.0
C_ C_ 0.0550589 0.147966 0.0626389 0.0
C_ C_ 0.0496074 0.173755 0.12845 0.0
C_ C_ 0.0171443 0.118307 0.0705612 0.0
C_ C_ 0.0115875 0.0597013 0.50313 0.0
C_ C_ 0.0535977 0.211787 0.16985 0.0
C_ C_ 0.0416029 0.248104 0.161617 0.0
C_ C_ 0.0355329 0.136442 0.273568 0.0
C_ C_ 0.252782 0.0812003 0.205144 0.0
C_ C_ 0.0247144 0.0916445 0.241913 0.0
C_ C_ 0.0576434 0.0727691 0.292912 0.0
C_ C_ 0.0605609 0.148445 0.311191 0.0
C_ C_ 0.0837972 0.174943 0.376388 0.0
C_ C_ 0.0734697 0.118911 0.318946 0.0
C_ C_ 0.0343459 0.0598709 0.252872 0.0
C_ C_ 0.106211 0.21243 0.419283 0.0
C_ C_ 0.14733 0.249407 0.416773 0.0
C_ C_ 0.184097 0.198114 0.477381 0.0
C_ C_ 0.191474 0.252167 0.0502313 0.0
C_ C_ 0.204072 0.241022 0.00640869 0.0
C_ C_ 0.00527045 0.259843 0.459132 0.0
C_ C_ 0.20128 0.185151 0.44032 0.0
C_ C_ 0.208204 0.159276 0.376865 0.0
C_ C_ 0.239589 0.21358 0.433754 0.0
C_ C_ 0.237992 0.271974 0.99593 0.0
C_ C_ 0.202999 0.125158 0.332978 0.0
C_ C_ 0.215417 0.0866873 0.334604 0.0
N_ N_ 0.192489 0.148814 0.153752 0.0
N_ N_ 0.162849 0.194999 0.143429 0.0
N_ N_ 0.0764712 0.182228 0.0995414 0.0
N_ N_ 0.0147604 0.133296 0.112095 0.0
N_ N_ 0.0660345 0.184191 0.347582 0.0
N_ N_ 0.0893784 0.136303 0.360335 0.0
N_ N_ 0.180248 0.151193 0.403908 0.0
N_ N_ 0.241769 0.199183 0.392034 0.0
O_ O_ 0.00742538 0.292296 0.327775 0.0
O_ O_ 0.0709147 0.291462 0.397526 0.0
O_ O_ 0.0125343 0.224339 0.304595 0.0
O_ O_ 0.168829 0.0984259 0.062704 0.0
O_ O_ 0.0404801 0.0377791 0.423863 0.0
O_ O_ 0.106992 0.0469741 0.357616 0.0
O_ O_ 0.0947151 0.10821 0.444953 0.0
O_ O_ 0.0953798 0.235481 0.189174 0.0
O_ O_ 0.242597 0.0397437 0.177175 0.0
O_ O_ 0.179717 0.0427754 0.109978 0.0
O_ O_ 0.243504 0.109982 0.197208 0.0
O_ O_ 0.0813154 0.230348 0.441719 0.0
O_ O_ 0.214293 0.292233 0.0793395 0.0
O_ O_ 0.149301 0.288378 0.143803 0.0
O_ O_ 0.160908 0.220096 0.0580814 0.0
O_ O_ 0.162077 0.10432 0.313279 0.0
Zn Zn 0.0342844 0.222134 0.858653 0.0
Zn Zn 0.119666 0.108948 0.888569 0.0
Zn Zn 0.213145 0.104059 0.639051 0.0
Zn Zn 0.13525 0.220163 0.608465 0.0
Zn Zn 0.0596437 0.332898 0.874856 0.0
Zn Zn 0.193191 0.332627 0.629115 0.0
H_ H_ 0.211165 0.165409 0.740922 0.0
H_ H_ 0.191474 0.285943 0.698554 0.0
H_ H_ 0.226878 0.30702 0.769752 0.0
H_ H_ 0.194697 0.126714 0.545931 0.0
H_ H_ 0.140417 0.141141 0.55886 0.0
H_ H_ 0.0944336 0.0557112 0.557939 0.0
H_ H_ 0.119282 0.0729507 0.61075 0.0
H_ H_ 0.0878463 0.100658 0.600084 0.0
H_ H_ 0.0928358 0.293607 0.911999 0.0
H_ H_ 0.0942824 0.163017 0.518585 0.0
H_ H_ 0.227159 0.0464773 0.557246 0.0
H_ H_ 0.24864 0.0249227 0.978501 0.0
H_ H_ 0.0901372 0.230551 0.725479 0.0
H_ H_ 0.0319401 0.187609 0.68839 0.0
H_ H_ 0.0449783 0.268177 0.69448 0.0
H_ H_ 0.0661645 0.258247 0.641947 0.0
H_ H_ 0.00955827 0.22334 0.647361 0.0
H_ H_ 0.116886 0.0298621 0.832662 0.0
H_ H_ 0.0230049 0.161077 0.767969 0.0
H_ H_ 0.0678673 0.0469306 0.798227 0.0
H_ H_ 0.0255552 0.0235485 0.728976 0.0
H_ H_ 0.0882379 0.238432 0.975288 0.0
H_ H_ 0.105552 0.185207 0.941495 0.0
H_ H_ 0.156113 0.26588 0.949188 0.0
H_ H_ 0.136953 0.260917 0.89574 0.0
H_ H_ 0.159469 0.226531 0.901977 0.0
H_ H_ 0.153281 0.0305074 0.58419 0.0
H_ H_ 0.149829 0.175711 0.975821 0.0
H_ H_ 0.0350009 0.281145 0.953197 0.0
H_ H_ 0.00651201 0.307225 0.520154 0.0
H_ H_ 0.154925 0.0732127 0.784795 0.0
H_ H_ 0.21862 0.143109 0.807415 0.0
H_ H_ 0.218589 0.0706618 0.807005 0.0
H_ H_ 0.196826 0.0736282 0.855418 0.0
H_ H_ 0.249804 0.117701 0.856353 0.0
H_ H_ 0.135664 0.289896 0.669858 0.0
C_ C_ 0.209666 0.190904 0.729161 0.0
C_ C_ 0.000365749 0.255497 0.799284 0.0
C_ C_ 0.224526 0.23797 0.759244 0.0
C_ C_ 0.192264 0.25895 0.709067 0.0
C_ C_ 0.186319 0.178647 0.690281 0.0
C_ C_ 0.172098 0.159255 0.620646 0.0
C_ C_ 0.176902 0.21144 0.680873 0.0
C_ C_ 0.213902 0.271216 0.748967 0.0
C_ C_ 0.148845 0.12367 0.578647 0.0
C_ C_ 0.109733 0.0859407 0.586802 0.0
C_ C_ 0.0674117 0.136864 0.524786 0.0
C_ C_ 0.0604222 0.0779352 0.95 0.0
C_ C_ 0.046619 0.0915324 0.993337 0.0
C_ C_ 0.246975 0.07293 0.545861 0.0
C_ C_ 0.0527852 0.148601 0.562262 0.0
C_ C_ 0.0523082 0.166404 0.629272 0.0
C_ C_ 0.0154241 0.117132 0.569405 0.0
C_ C_ 0.0104544 0.060463 0.00328985 0.0
C_ C_ 0.0556781 0.20474 0.670777 0.0
C_ C_ 0.0438493 0.241539 0.662765 0.0
C_ C_ 0.0360966 0.13635 0.772295 0.0
C_ C_ 0.247759 0.0762049 0.699624 0.0
C_ C_ 0.0238535 0.0909602 0.74216 0.0
C_ C_ 0.0605443 0.0721243 0.790729 0.0
C_ C_ 0.0615176 0.149145 0.811484 0.0
C_ C_ 0.0798808 0.170042 0.877913 0.0
C_ C_ 0.0737748 0.117887 0.819542 0.0
C_ C_ 0.0362406 0.0582949 0.750738 0.0
C_ C_ 0.100264 0.204261 0.922454 0.0
C_ C_ 0.13999 0.242311 0.918508 0.0
C_ C_ 0.182375 0.198112 0.974846 0.0
C_ C_ 0.192115 0.256408 0.551832 0.0
C_ C_ 0.207305 0.242788 0.509139 0.0
C_ C_ 0.00602654 0.258809 0.958669 0.0
C_ C_ 0.199709 0.183488 0.936171 0.0
C_ C_ 0.20141 0.162999 0.869041 0.0
C_ C_ 0.237392 0.212463 0.930075 0.0
C_ C_ 0.244823 0.272242 0.50066 0.0
C_ C_ 0.198996 0.126084 0.829342 0.0
C_ C_ 0.218381 0.0966196 0.838473 0.0
N_ N_ 0.186465 0.1474 0.651625 0.0
N_ N_ 0.168446 0.199394 0.637324 0.0
N_ N_ 0.0767622 0.176229 0.599391 0.0
N_ N_ 0.014919 0.128776 0.61105 0.0
N_ N_ 0.0636244 0.180716 0.847808 0.0
N_ N_ 0.0860845 0.130952 0.860843 0.0
N_ N_ 0.176926 0.151892 0.898661 0.0
N_ N_ 0.237935 0.199977 0.887688 0.0
O_ O_ 0.0107895 0.297453 0.826005 0.0
O_ O_ 0.0695727 0.286457 0.892409 0.0
O_ O_ 0.0162379 0.228329 0.803766 0.0
O_ O_ 0.175508 0.104031 0.557529 0.0
O_ O_ 0.0380398 0.0389679 0.921304 0.0
O_ O_ 0.106386 0.0443105 0.856642 0.0
O_ O_ 0.0968976 0.103042 0.94412 0.0
O_ O_ 0.0948419 0.225078 0.695231 0.0
O_ O_ 0.239325 0.0360396 0.671152 0.0
O_ O_ 0.173665 0.0391539 0.606667 0.0
O_ O_ 0.232897 0.102033 0.693865 0.0
O_ O_ 0.0755412 0.223987 0.944938 0.0
O_ O_ 0.21383 0.294429 0.582618 0.0
O_ O_ 0.143631 0.284636 0.642379 0.0
O_ O_ 0.155194 0.230591 0.555371 0.0
O_ O_ 0.156911 0.100541 0.811645 0.0
Zn Zn 0.0377599 0.55856 0.36138 0.0
Zn Zn 0.11429 0.441772 0.3907 0.0
Zn Zn 0.21582 0.440894 0.13648 0.0
Zn Zn 0.134303 0.556168 0.111521 0.0
Zn Zn 0.0550764 0.666272 0.374398 0.0
Zn Zn 0.190224 0.663178 0.12424 0.0
H_ H_ 0.21441 0.500044 0.237323 0.0
H_ H_ 0.194131 0.619081 0.195997 0.0
H_ H_ 0.232075 0.639302 0.268661 0.0
H_ H_ 0.19175 0.464323 0.0464824 0.0
H_ H_ 0.142301 0.481549 0.0620166 0.0
H_ H_ 0.0887133 0.437246 0.105057 0.0
H_ H_ 0.0868408 0.408662 0.0497002 0.0
H_ H_ 0.102034 0.390037 0.0852627 0.0
H_ H_ 0.0990258 0.639566 0.411836 0.0
H_ H_ 0.0922505 0.496737 0.0163433 0.0
H_ H_ 0.219147 0.381499 0.0443146 0.0
H_ H_ 0.254927 0.353784 0.49081 0.0
H_ H_ 0.0994093 0.536211 0.202715 0.0
H_ H_ 0.0371081 0.527396 0.195913 0.0
H_ H_ 0.0122832 0.559336 0.144453 0.0
H_ H_ 0.0418979 0.596686 0.200514 0.0
H_ H_ 0.0697191 0.60145 0.156786 0.0
H_ H_ 0.117112 0.363863 0.334651 0.0
H_ H_ 0.0251248 0.494716 0.270708 0.0
H_ H_ 0.0614282 0.379508 0.303594 0.0
H_ H_ 0.0240969 0.358465 0.231677 0.0
H_ H_ 0.0814659 0.575905 0.464922 0.0
H_ H_ 0.0990211 0.519681 0.444815 0.0
H_ H_ 0.162191 0.553003 0.404298 0.0
H_ H_ 0.159986 0.598879 0.451697 0.0
H_ H_ 0.139011 0.590127 0.398597 0.0
H_ H_ 0.152103 0.362935 0.0869644 0.0
H_ H_ 0.149228 0.51187 0.475518 0.0
H_ H_ 0.0353975 0.615311 0.452018 0.0
H_ H_ 0.0108474 0.639404 0.0216886 0.0
H_ H_ 0.158327 0.416005 0.278404 0.0
H_ H_ 0.214458 0.473087 0.311212 0.0
H_ H_ 0.209534 0.395789 0.312959 0.0
H_ H_ 0.190439 0.409215 0.364612 0.0
H_ H_ 0.242059 0.442431 0.359037 0.0
H_ H_ 0.1358 0.635261 0.170502 0.0
C_ C_ 0.214642 0.526297 0.226319 0.0
C_ C_ 0.998475 0.586927 0.300529 0.0
C_ C_ 0.226496 0.571154 0.257391 0.0
C_ C_ 0.19436 0.592347 0.207487 0.0
C_ C_ 0.188808 0.514243 0.188417 0.0
C_ C_ 0.171002 0.494611 0.122515 0.0
C_ C_ 0.177584 0.54683 0.180082 0.0
C_ C_ 0.218729 0.604339 0.246065 0.0
C_ C_ 0.149001 0.459965 0.0787707 0.0
C_ C_ 0.105939 0.42304 0.0809547 0.0
C_ C_ 0.0652828 0.471533 0.0246578 0.0
C_ C_ 0.0574253 0.410359 0.449896 0.0
C_ C_ 0.0436498 0.42645 0.490415 0.0
C_ C_ 0.243521 0.408653 0.0361598 0.0
C_ C_ 0.049341 0.483461 0.0625581 0.0
C_ C_ 0.0503621 0.503934 0.130343 0.0
C_ C_ 0.0152927 0.453345 0.0692902 0.0
C_ C_ 0.00980601 0.393109 0.50243 0.0
C_ C_ 0.0566048 0.541971 0.173331 0.0
C_ C_ 0.0440765 0.578215 0.168011 0.0
C_ C_ 0.0358123 0.469654 0.273985 0.0
C_ C_ 0.249272 0.41167 0.200009 0.0
C_ C_ 0.0234088 0.425172 0.24395 0.0
C_ C_ 0.0545867 0.404993 0.294433 0.0
C_ C_ 0.0622976 0.482667 0.310954 0.0
C_ C_ 0.0784737 0.504898 0.378438 0.0
C_ C_ 0.074079 0.451269 0.318813 0.0
C_ C_ 0.0310095 0.391613 0.254036 0.0
C_ C_ 0.097585 0.537681 0.421773 0.0
C_ C_ 0.14205 0.572002 0.420532 0.0
C_ C_ 0.18184 0.526993 0.476038 0.0
C_ C_ 0.186981 0.58584 0.0497498 0.0
C_ C_ 0.200945 0.5719 0.00867747 0.0
C_ C_ 0.00598195 0.593792 0.45911 0.0
C_ C_ 0.198148 0.512284 0.439404 0.0
C_ C_ 0.199321 0.493174 0.3717 0.0
C_ C_ 0.235417 0.540838 0.431277 0.0
C_ C_ 0.236549 0.604306 0.999349 0.0
C_ C_ 0.195434 0.455884 0.331292 0.0
C_ C_ 0.20818 0.42318 0.342265 0.0
N_ N_ 0.184848 0.4825 0.152282 0.0
N_ N_ 0.168118 0.535773 0.139618 0.0
N_ N_ 0.07306 0.516879 0.100076 0.0
N_ N_ 0.0140672 0.466071 0.112554 0.0
N_ N_ 0.0654674 0.517097 0.348464 0.0
N_ N_ 0.0841631 0.464769 0.361363 0.0
N_ N_ 0.175435 0.481306 0.401924 0.0
N_ N_ 0.236538 0.528186 0.389974 0.0
O_ O_ 0.00655599 0.627214 0.327423 0.0
O_ O_ 0.0734358 0.62624 0.394977 0.0
O_ O_ 0.0164062 0.562 0.306019 0.0
O_ O_ 0.173215 0.439541 0.0568911 0.0
O_ O_ 0.0351702 0.372784 0.421995 0.0
O_ O_ 0.10321 0.375336 0.355279 0.0
O_ O_ 0.0940941 0.435001 0.445209 0.0
O_ O_ 0.0972722 0.559724 0.191608 0.0
O_ O_ 0.242517 0.373178 0.171669 0.0
O_ O_ 0.178371 0.375116 0.102961 0.0
O_ O_ 0.238883 0.442526 0.192952 0.0
O_ O_ 0.0720716 0.561749 0.435173 0.0
O_ O_ 0.21042 0.623034 0.0805304 0.0
O_ O_ 0.146278 0.622188 0.144895 0.0
O_ O_ 0.150501 0.559235 0.0550131 0.0
O_ O_ 0.156373 0.43385 0.308257 0.0
Zn Zn 0.0362917 0.556979 0.862602 0.0
Zn Zn 0.116237 0.440405 0.891166 0.0
Zn Zn 0.219968 0.443428 0.639853 0.0
Zn Zn 0.133496 0.552769 0.609679 0.0
Zn Zn 0.0586089 0.667158 0.874439 0.0
Zn Zn 0.191461 0.663586 0.624275 0.0
H_ H_ 0.226756 0.507941 0.736319 0.0
H_ H_ 0.176589 0.609351 0.698655 0.0
H_ H_ 0.218989 0.63875 0.76959 0.0
H_ H_ 0.167279 0.418815 0.532499 0.0
H_ H_ 0.14094 0.473657 0.558376 0.0
H_ H_ 0.098883 0.396136 0.557357 0.0
H_ H_ 0.124149 0.410046 0.612791 0.0
H_ H_ 0.0954506 0.43769 0.600059 0.0
H_ H_ 0.0901659 0.631395 0.922978 0.0
H_ H_ 0.0927593 0.497336 0.515657 0.0
H_ H_ 0.232287 0.379986 0.557966 0.0
H_ H_ 0.240691 0.359332 0.975838 0.0
H_ H_ 0.0972351 0.564398 0.722794 0.0
H_ H_ 0.033045 0.518934 0.693595 0.0
H_ H_ 0.0381388 0.595357 0.708645 0.0
H_ H_ 0.061904 0.600992 0.660376 0.0
H_ H_ 0.0120097 0.564613 0.654977 0.0
H_ H_ 0.120152 0.362966 0.834972 0.0
H_ H_ 0.0241928 0.492701 0.76974 0.0
H_ H_ 0.060614 0.379719 0.801004 0.0
H_ H_ 0.0276775 0.359825 0.72935 0.0
H_ H_ 0.0695752 0.567899 0.965042 0.0
H_ H_ 0.0939608 0.517538 0.943824 0.0
H_ H_ 0.137352 0.591839 0.903342 0.0
H_ H_ 0.157432 0.5589 0.915924 0.0
H_ H_ 0.145017 0.602348 0.9581 0.0
H_ H_ 0.166769 0.365528 0.576663 0.0
H_ H_ 0.149494 0.506763 0.983297 0.0
H_ H_ 0.0271614 0.618006 0.947339 0.0
H_ H_ 0.00587371 0.64114 0.52069 0.0
H_ H_ 0.154395 0.45086 0.798149 0.0
H_ H_ 0.219793 0.476889 0.811984 0.0
H_ H_ 0.221137 0.406768 0.814203 0.0
H_ H_ 0.196544 0.410852 0.862515 0.0
H_ H_ 0.248396 0.453482 0.868923 0.0
H_ H_ 0.135093 0.630228 0.667574 0.0
C_ C_ 0.216113 0.530016 0.728944 0.0
C_ C_ 0.00453452 0.589062 0.799223 0.0
C_ C_ 0.230209 0.576634 0.757731 0.0
C_ C_ 0.187663 0.588378 0.707416 0.0
C_ C_ 0.189547 0.513825 0.690838 0.0
C_ C_ 0.174898 0.495734 0.62153 0.0
C_ C_ 0.173747 0.542706 0.680892 0.0
C_ C_ 0.216247 0.605098 0.74688 0.0
C_ C_ 0.154573 0.461527 0.579371 0.0
C_ C_ 0.116646 0.423231 0.587852 0.0
C_ C_ 0.0651663 0.47256 0.521937 0.0
C_ C_ 0.0614025 0.412785 0.951831 0.0
C_ C_ 0.0436834 0.42857 0.992333 0.0
C_ C_ 0.254504 0.405291 0.547362 0.0
C_ C_ 0.0504868 0.483823 0.560054 0.0
C_ C_ 0.0472809 0.505402 0.628724 0.0
C_ C_ 0.0141898 0.452771 0.567309 0.0
C_ C_ 0.0100898 0.392928 0.00269208 0.0
C_ C_ 0.0539176 0.538266 0.67321 0.0
C_ C_ 0.0419798 0.578097 0.676134 0.0
C_ C_ 0.0380061 0.471002 0.772206 0.0
C_ C_ 0.254274 0.41457 0.703621 0.0
C_ C_ 0.0246695 0.425869 0.742341 0.0
C_ C_ 0.0615553 0.406965 0.790131 0.0
C_ C_ 0.0616602 0.48271 0.810313 0.0
C_ C_ 0.0788397 0.502021 0.87602 0.0
C_ C_ 0.0762344 0.451537 0.817102 0.0
C_ C_ 0.0357492 0.394473 0.752667 0.0
C_ C_ 0.0935485 0.536513 0.921868 0.0
C_ C_ 0.13514 0.573867 0.926073 0.0
C_ C_ 0.18018 0.528154 0.978261 0.0
C_ C_ 0.190336 0.585101 0.547794 0.0
C_ C_ 0.20453 0.569403 0.507218 0.0
C_ C_ 0.00235204 0.594644 0.95684 0.0
C_ C_ 0.196781 0.51464 0.941835 0.0
C_ C_ 0.201056 0.495147 0.874579 0.0
C_ C_ 0.234101 0.545584 0.934975 0.0
C_ C_ 0.242738 0.597928 0.498699 0.0
C_ C_ 0.199844 0.45955 0.83374 0.0
C_ C_ 0.218688 0.429874 0.845109 0.0
N_ N_ 0.19195 0.484842 0.652272 0.0
N_ N_ 0.164831 0.530826 0.638938 0.0
N_ N_ 0.0729777 0.516236 0.599185 0.0
N_ N_ 0.0128446 0.467565 0.610129 0.0
N_ N_ 0.061674 0.511931 0.846637 0.0
N_ N_ 0.0886453 0.465506 0.858453 0.0
N_ N_ 0.176168 0.482718 0.903858 0.0
N_ N_ 0.235998 0.533449 0.893685 0.0
O_ O_ 0.00992 0.626656 0.826701 0.0
O_ O_ 0.0732434 0.622959 0.897129 0.0
O_ O_ 0.0128137 0.559022 0.809059 0.0
O_ O_ 0.182237 0.444611 0.560025 0.0
O_ O_ 0.0405629 0.372705 0.923403 0.0
O_ O_ 0.105697 0.372529 0.856615 0.0
O_ O_ 0.0974702 0.438754 0.945767 0.0
O_ O_ 0.0946217 0.556207 0.690992 0.0
O_ O_ 0.241047 0.37303 0.679399 0.0
O_ O_ 0.180041 0.375763 0.607077 0.0
O_ O_ 0.243152 0.44434 0.695981 0.0
O_ O_ 0.0662722 0.558 0.933345 0.0
O_ O_ 0.210907 0.626418 0.575328 0.0
O_ O_ 0.143885 0.61804 0.640342 0.0
O_ O_ 0.157565 0.557229 0.554854 0.0
O_ O_ 0.160167 0.432497 0.81314 0.0
Zn Zn 0.0348911 0.892803 0.361525 0.0
Zn Zn 0.114451 0.774332 0.394437 0.0
Zn Zn 0.213538 0.773235 0.140863 0.0
Zn Zn 0.133421 0.891931 0.11193 0.0
Zn Zn 0.0626336 0.000314848 0.375876 0.0
Zn Zn 0.195818 0.00108148 0.129363 0.0
H_ H_ 0.230193 0.841769 0.231436 0.0
H_ H_ 0.172801 0.947243 0.210428 0.0
H_ H_ 0.232553 0.975454 0.268343 0.0
H_ H_ 0.190604 0.793737 0.0490751 0.0
H_ H_ 0.13541 0.80891 0.0597455 0.0
H_ H_ 0.0918296 0.730686 0.0596752 0.0
H_ H_ 0.114428 0.744258 0.108698 0.0
H_ H_ 0.0897604 0.779508 0.107374 0.0
H_ H_ 0.100491 0.969124 0.412149 0.0
H_ H_ 0.0912412 0.827403 0.0137858 0.0
H_ H_ 0.217757 0.714468 0.050855 0.0
H_ H_ 0.258265 0.686886 0.488717 0.0
H_ H_ 0.0865251 0.891947 0.218809 0.0
H_ H_ 0.0257303 0.859658 0.188089 0.0
H_ H_ 0.0210816 0.927441 0.188714 0.0
H_ H_ 0.062139 0.941164 0.156239 0.0
H_ H_ 0.0101049 0.899209 0.136359 0.0
H_ H_ 0.122219 0.695655 0.344763 0.0
H_ H_ 0.027364 0.82816 0.271188 0.0
H_ H_ 0.0569268 0.710968 0.305485 0.0
H_ H_ 0.0217991 0.691489 0.229671 0.0
H_ H_ 0.0925731 0.915585 0.470877 0.0
H_ H_ 0.110835 0.856768 0.443394 0.0
H_ H_ 0.15519 0.937172 0.444056 0.0
H_ H_ 0.138782 0.923981 0.388654 0.0
H_ H_ 0.161542 0.8928 0.399173 0.0
H_ H_ 0.152726 0.701138 0.0851946 0.0
H_ H_ 0.153667 0.835521 0.486065 0.0
H_ H_ 0.0357416 0.950676 0.452857 0.0
H_ H_ 0.00235882 0.974783 0.0181976 0.0
H_ H_ 0.157754 0.774197 0.274115 0.0
H_ H_ 0.219788 0.816727 0.31193 0.0
H_ H_ 0.189799 0.730127 0.343113 0.0
H_ H_ 0.240099 0.771828 0.345037 0.0
H_ H_ 0.213405 0.734921 0.294414 0.0
H_ H_ 0.131188 0.967627 0.165422 0.0
C_ C_ 0.215184 0.862195 0.225982 0.0
C_ C_ 0.998414 0.919708 0.300899 0.0
C_ C_ 0.227992 0.90692 0.257498 0.0
C_ C_ 0.186972 0.924515 0.213332 0.0
C_ C_ 0.190003 0.85028 0.189592 0.0
C_ C_ 0.170651 0.830783 0.123382 0.0
C_ C_ 0.173493 0.878363 0.184236 0.0
C_ C_ 0.217514 0.940216 0.247655 0.0
C_ C_ 0.147357 0.79493 0.0801498 0.0
C_ C_ 0.107821 0.759969 0.0888085 0.0
C_ C_ 0.0673421 0.804566 0.0234579 0.0
C_ C_ 0.0613683 0.74141 0.454262 0.0
C_ C_ 0.0455168 0.758337 0.494051 0.0
C_ C_ 0.241371 0.74044 0.0412271 0.0
C_ C_ 0.0511521 0.817425 0.0613506 0.0
C_ C_ 0.0458298 0.842487 0.127826 0.0
C_ C_ 0.0143991 0.786653 0.0687858 0.0
C_ C_ 0.00965186 0.727706 0.502808 0.0
C_ C_ 0.0487228 0.879178 0.169222 0.0
C_ C_ 0.0375608 0.916844 0.163139 0.0
C_ C_ 0.0373605 0.803814 0.27479 0.0
C_ C_ 0.248318 0.743473 0.199832 0.0
C_ C_ 0.02148 0.757337 0.244115 0.0
C_ C_ 0.0505356 0.736462 0.296849 0.0
C_ C_ 0.0611249 0.81487 0.313485 0.0
C_ C_ 0.0773348 0.83539 0.380323 0.0
C_ C_ 0.0721191 0.783121 0.32174 0.0
C_ C_ 0.0292854 0.725455 0.255261 0.0
C_ C_ 0.102072 0.873036 0.421297 0.0
C_ C_ 0.140973 0.908152 0.411158 0.0
C_ C_ 0.181931 0.860676 0.479343 0.0
C_ C_ 0.188514 0.920564 0.0507675 0.0
C_ C_ 0.201942 0.908736 0.00721201 0.0
C_ C_ 0.00548341 0.926905 0.459202 0.0
C_ C_ 0.195763 0.850884 0.439236 0.0
C_ C_ 0.197554 0.824515 0.371331 0.0
C_ C_ 0.229764 0.881269 0.431102 0.0
C_ C_ 0.235165 0.941727 0.99651 0.0
C_ C_ 0.195521 0.792362 0.327258 0.0
C_ C_ 0.209612 0.753966 0.326653 0.0
N_ N_ 0.189213 0.820153 0.151401 0.0
N_ N_ 0.162485 0.867683 0.142547 0.0
N_ N_ 0.0727548 0.851336 0.0988053 0.0
N_ N_ 0.0119523 0.801954 0.110195 0.0
N_ N_ 0.0628798 0.847382 0.350617 0.0
N_ N_ 0.0830577 0.7967 0.362913 0.0
N_ N_ 0.174004 0.814371 0.402771 0.0
N_ N_ 0.230909 0.86536 0.38894 0.0
O_ O_ 0.0162056 0.963362 0.324787 0.0
O_ O_ 0.0755725 0.95834 0.393791 0.0
O_ O_ 0.0113305 0.890064 0.305153 0.0
O_ O_ 0.169519 0.770876 0.0601082 0.0
O_ O_ 0.0379874 0.703985 0.424776 0.0
O_ O_ 0.103857 0.710031 0.356866 0.0
O_ O_ 0.0968029 0.766353 0.449302 0.0
O_ O_ 0.0894719 0.898032 0.190524 0.0
O_ O_ 0.240052 0.703248 0.172464 0.0
O_ O_ 0.172994 0.707872 0.107841 0.0
O_ O_ 0.22853 0.767651 0.197537 0.0
O_ O_ 0.0779261 0.894814 0.441297 0.0
O_ O_ 0.212454 0.95761 0.0809656 0.0
O_ O_ 0.149606 0.958314 0.148099 0.0
O_ O_ 0.153701 0.894639 0.0559202 0.0
O_ O_ 0.155649 0.774421 0.304804 0.0
Zn Zn 0.0335657 0.890315 0.858384 0.0
Zn Zn 0.115831 0.776231 0.889552 0.0
Zn Zn 0.212813 0.773197 0.638155 0.0
Zn Zn 0.131357 0.889856 0.612265 0.0
Zn Zn 0.0576008 0.00162785 0.87376 0.0
Zn Zn 0.189865 0.997196 0.624793 0.0
H_ H_ 0.222635 0.835888 0.732219 0.0
H_ H_ 0.168652 0.939988 0.701776 0.0
H_ H_ 0.219909 0.970865 0.768606 0.0
H_ H_ 0.164406 0.759546 0.529651 0.0
H_ H_ 0.137558 0.807418 0.560366 0.0
H_ H_ 0.107044 0.741509 0.607322 0.0
H_ H_ 0.0785869 0.76381 0.58346 0.0
H_ H_ 0.088038 0.71975 0.549223 0.0
H_ H_ 0.0896298 0.966686 0.915254 0.0
H_ H_ 0.0958618 0.827329 0.517921 0.0
H_ H_ 0.227214 0.713807 0.553007 0.0
H_ H_ 0.236083 0.696047 0.975266 0.0
H_ H_ 0.0865252 0.891674 0.722402 0.0
H_ H_ 0.0289952 0.85291 0.687687 0.0
H_ H_ 0.0400489 0.935018 0.698257 0.0
H_ H_ 0.0567001 0.928269 0.645928 0.0
H_ H_ 0.00686219 0.891911 0.651608 0.0
H_ H_ 0.109604 0.701113 0.825894 0.0
H_ H_ 0.0372174 0.834528 0.765628 0.0
H_ H_ 0.0620849 0.714739 0.796729 0.0
H_ H_ 0.0179676 0.692588 0.732883 0.0
H_ H_ 0.0555776 0.881726 0.959761 0.0
H_ H_ 0.101732 0.856999 0.945886 0.0
H_ H_ 0.150825 0.934401 0.952957 0.0
H_ H_ 0.13433 0.925263 0.898548 0.0
H_ H_ 0.155211 0.888112 0.907325 0.0
H_ H_ 0.158704 0.694644 0.579962 0.0
H_ H_ 0.155852 0.835985 0.984328 0.0
H_ H_ 0.0289449 0.950187 0.948646 0.0
H_ H_ 0.0107135 0.97354 0.522922 0.0
H_ H_ 0.158128 0.782152 0.781588 0.0
H_ H_ 0.219951 0.809372 0.808966 0.0
H_ H_ 0.208685 0.730706 0.803474 0.0
H_ H_ 0.18672 0.734569 0.850365 0.0
H_ H_ 0.239386 0.772563 0.852942 0.0
H_ H_ 0.130338 0.967674 0.666049 0.0
C_ C_ 0.210798 0.85794 0.726593 0.0
C_ C_ 0.00575376 0.922972 0.79665 0.0
C_ C_ 0.22232 0.904149 0.757715 0.0
C_ C_ 0.180479 0.917557 0.710932 0.0
C_ C_ 0.18255 0.843375 0.689932 0.0
C_ C_ 0.165892 0.824181 0.622552 0.0
C_ C_ 0.167758 0.872956 0.682805 0.0
C_ C_ 0.208453 0.934688 0.749082 0.0
C_ C_ 0.144439 0.789363 0.579388 0.0
C_ C_ 0.10324 0.750707 0.578657 0.0
C_ C_ 0.0663524 0.802899 0.525021 0.0
C_ C_ 0.0596954 0.744155 0.95114 0.0
C_ C_ 0.0438348 0.758957 0.990956 0.0
C_ C_ 0.249655 0.739429 0.541833 0.0
C_ C_ 0.0507727 0.815836 0.561763 0.0
C_ C_ 0.0488822 0.836698 0.627891 0.0
C_ C_ 0.0147818 0.786935 0.569387 0.0
C_ C_ 0.00945822 0.727426 0.000447992 0.0
C_ C_ 0.0506761 0.871188 0.670699 0.0
C_ C_ 0.0384193 0.909643 0.66613 0.0
C_ C_ 0.0401078 0.807647 0.773187 0.0
C_ C_ 0.249276 0.744173 0.700394 0.0
C_ C_ 0.0270336 0.761644 0.742895 0.0
C_ C_ 0.0628459 0.743147 0.788445 0.0
C_ C_ 0.0639166 0.82006 0.81218 0.0
C_ C_ 0.0769121 0.838377 0.879073 0.0
C_ C_ 0.0773773 0.790427 0.819842 0.0
C_ C_ 0.0366238 0.730271 0.751679 0.0
C_ C_ 0.0950608 0.872582 0.923522 0.0
C_ C_ 0.137118 0.90855 0.921114 0.0
C_ C_ 0.179695 0.862661 0.976231 0.0
C_ C_ 0.188479 0.918574 0.551439 0.0
C_ C_ 0.202319 0.906619 0.509063 0.0
C_ C_ 0.00494804 0.926557 0.958616 0.0
C_ C_ 0.195503 0.85004 0.937935 0.0
C_ C_ 0.199271 0.828036 0.871571 0.0
C_ C_ 0.230675 0.879838 0.930122 0.0
C_ C_ 0.234938 0.938648 0.495848 0.0
C_ C_ 0.19591 0.792176 0.827978 0.0
C_ C_ 0.208475 0.755758 0.833372 0.0
N_ N_ 0.181877 0.81265 0.65219 0.0
N_ N_ 0.157257 0.861158 0.640184 0.0
N_ N_ 0.0724751 0.848203 0.597769 0.0
N_ N_ 0.0133894 0.800414 0.611707 0.0
N_ N_ 0.0621726 0.848761 0.848518 0.0
N_ N_ 0.0864996 0.801672 0.862379 0.0
N_ N_ 0.173615 0.818357 0.900747 0.0
N_ N_ 0.233502 0.866983 0.889047 0.0
O_ O_ 0.0128779 0.962106 0.826252 0.0
O_ O_ 0.0744184 0.95679 0.888072 0.0
O_ O_ 0.0166144 0.893322 0.802699 0.0
O_ O_ 0.171689 0.770068 0.560535 0.0
O_ O_ 0.0377228 0.703916 0.922277 0.0
O_ O_ 0.105615 0.711727 0.8552 0.0
O_ O_ 0.0955722 0.769813 0.945754 0.0
O_ O_ 0.0895549 0.891762 0.694155 0.0
O_ O_ 0.239426 0.704545 0.673122 0.0
O_ O_ 0.177988 0.706164 0.605249 0.0
O_ O_ 0.236985 0.772247 0.693071 0.0
O_ O_ 0.0727741 0.897063 0.941138 0.0
O_ O_ 0.209095 0.959564 0.579683 0.0
O_ O_ 0.144848 0.955178 0.645366 0.0
O_ O_ 0.152298 0.893786 0.555526 0.0
O_ O_ 0.156316 0.770076 0.805415 0.0
Zn Zn 0.291791 0.225329 0.363614 0.0
Zn Zn 0.369496 0.107078 0.394595 0.0
Zn Zn 0.465977 0.109675 0.140908 0.0
Zn Zn 0.38574 0.22365 0.109098 0.0
Zn Zn 0.309126 0.332956 0.378569 0.0
Zn Zn 0.444685 0.333016 0.126647 0.0
H_ H_ 0.469777 0.169584 0.234705 0.0
H_ H_ 0.448938 0.291033 0.196888 0.0
H_ H_ 0.478487 0.307758 0.268115 0.0
H_ H_ 0.413435 0.0950178 0.0264315 0.0
H_ H_ 0.390459 0.142503 0.0583396 0.0
H_ H_ 0.363788 0.0678748 0.104066 0.0
H_ H_ 0.335481 0.0996146 0.0943463 0.0
H_ H_ 0.346835 0.0601716 0.0495843 0.0
H_ H_ 0.357584 0.302083 0.407188 0.0
H_ H_ 0.343359 0.16383 0.0184069 0.0
H_ H_ 0.470495 0.0515531 0.0511063 0.0
H_ H_ 0.50105 0.0233864 0.484406 0.0
H_ H_ 0.350725 0.228926 0.222062 0.0
H_ H_ 0.286096 0.185073 0.191254 0.0
H_ H_ 0.271233 0.238562 0.159057 0.0
H_ H_ 0.30438 0.270056 0.209503 0.0
H_ H_ 0.322229 0.270721 0.158016 0.0
H_ H_ 0.374855 0.0303397 0.364014 0.0
H_ H_ 0.28999 0.169395 0.267638 0.0
H_ H_ 0.313578 0.0469462 0.305718 0.0
H_ H_ 0.273883 0.0260904 0.235831 0.0
H_ H_ 0.356863 0.255523 0.474014 0.0
H_ H_ 0.363076 0.189993 0.445761 0.0
H_ H_ 0.413041 0.217063 0.394046 0.0
H_ H_ 0.421127 0.261857 0.445361 0.0
H_ H_ 0.397795 0.257913 0.393732 0.0
H_ H_ 0.40934 0.0301205 0.0829417 0.0
H_ H_ 0.410304 0.169523 0.488498 0.0
H_ H_ 0.290979 0.282695 0.458264 0.0
H_ H_ 0.254291 0.306793 0.0195161 0.0
H_ H_ 0.412625 0.120714 0.283966 0.0
H_ H_ 0.472473 0.147147 0.314024 0.0
H_ H_ 0.47456 0.0734336 0.308815 0.0
H_ H_ 0.429052 0.0543003 0.330209 0.0
H_ H_ 0.479016 0.101323 0.364622 0.0
H_ H_ 0.386269 0.302297 0.172278 0.0
C_ C_ 0.462998 0.194632 0.226144 0.0
C_ C_ 0.253164 0.249619 0.302581 0.0
C_ C_ 0.475577 0.239402 0.255537 0.0
C_ C_ 0.445336 0.262638 0.207357 0.0
C_ C_ 0.44046 0.182884 0.186647 0.0
C_ C_ 0.4236 0.162075 0.120608 0.0
C_ C_ 0.429481 0.215501 0.179273 0.0
C_ C_ 0.469288 0.273151 0.244499 0.0
C_ C_ 0.400329 0.125479 0.0783649 0.0
C_ C_ 0.359602 0.0865569 0.0836478 0.0
C_ C_ 0.318725 0.13773 0.02385 0.0
C_ C_ 0.307699 0.0822597 0.452749 0.0
C_ C_ 0.291502 0.0977369 0.493202 0.0
C_ C_ 0.495987 0.073533 0.0408017 0.0
C_ C_ 0.302736 0.150074 0.0618396 0.0
C_ C_ 0.30155 0.172566 0.128383 0.0
C_ C_ 0.267022 0.119091 0.0702441 0.0
C_ C_ 0.261869 0.0631964 0.506247 0.0
C_ C_ 0.308505 0.205406 0.174283 0.0
C_ C_ 0.302529 0.248911 0.174058 0.0
C_ C_ 0.29321 0.141554 0.277716 0.0
C_ C_ 0.504517 0.0835544 0.198846 0.0
C_ C_ 0.27911 0.0955299 0.245944 0.0
C_ C_ 0.309524 0.0738891 0.296774 0.0
C_ C_ 0.31924 0.152075 0.314925 0.0
C_ C_ 0.33226 0.170676 0.381285 0.0
C_ C_ 0.330677 0.120844 0.321526 0.0
C_ C_ 0.287581 0.0627674 0.257446 0.0
C_ C_ 0.358504 0.207442 0.42284 0.0
C_ C_ 0.398933 0.239051 0.41387 0.0
C_ C_ 0.436654 0.195126 0.481901 0.0
C_ C_ 0.439298 0.254197 0.0480795 0.0
C_ C_ 0.455136 0.238714 0.00874867 0.0
C_ C_ 0.261743 0.257835 0.463886 0.0
C_ C_ 0.451748 0.183193 0.443 0.0
C_ C_ 0.453288 0.159658 0.374994 0.0
C_ C_ 0.485994 0.215423 0.432996 0.0
C_ C_ 0.49107 0.272191 0.999171 0.0
C_ C_ 0.450028 0.126974 0.331384 0.0
C_ C_ 0.456856 0.0848593 0.334633 0.0
N_ N_ 0.439508 0.150771 0.149198 0.0
N_ N_ 0.418518 0.201784 0.137558 0.0
N_ N_ 0.324726 0.1837 0.0992456 0.0
N_ N_ 0.265548 0.132478 0.112451 0.0
N_ N_ 0.321948 0.184823 0.351021 0.0
N_ N_ 0.338319 0.131994 0.363765 0.0
N_ N_ 0.429741 0.147469 0.405801 0.0
N_ N_ 0.487279 0.201415 0.391117 0.0
O_ O_ 0.259827 0.287698 0.332442 0.0
O_ O_ 0.328595 0.293604 0.397697 0.0
O_ O_ 0.27045 0.225502 0.307607 0.0
O_ O_ 0.424879 0.105811 0.0565046 0.0
O_ O_ 0.286566 0.0417678 0.427591 0.0
O_ O_ 0.35299 0.0381509 0.36136 0.0
O_ O_ 0.345437 0.102895 0.449666 0.0
O_ O_ 0.348589 0.216803 0.190471 0.0
O_ O_ 0.49282 0.0422047 0.17419 0.0
O_ O_ 0.425115 0.0416503 0.111685 0.0
O_ O_ 0.489808 0.109965 0.193849 0.0
O_ O_ 0.339855 0.235553 0.44339 0.0
O_ O_ 0.459323 0.295517 0.0749329 0.0
O_ O_ 0.39854 0.292116 0.148698 0.0
O_ O_ 0.405066 0.227002 0.0545979 0.0
O_ O_ 0.411109 0.107463 0.307166 0.0
Zn Zn 0.288 0.223731 0.859546 0.0
Zn Zn 0.369106 0.107604 0.888986 0.0
Zn Zn 0.465588 0.108406 0.638539 0.0
Zn Zn 0.382986 0.225136 0.613599 0.0
Zn Zn 0.307188 0.332856 0.873697 0.0
Zn Zn 0.442997 0.332183 0.628292 0.0
H_ H_ 0.474957 0.171289 0.732645 0.0
H_ H_ 0.441012 0.288762 0.698745 0.0
H_ H_ 0.475899 0.30905 0.770948 0.0
H_ H_ 0.438006 0.122495 0.542298 0.0
H_ H_ 0.393403 0.145088 0.559534 0.0
H_ H_ 0.344401 0.0659859 0.551897 0.0
H_ H_ 0.358298 0.0730916 0.605128 0.0
H_ H_ 0.336331 0.107805 0.593272 0.0
H_ H_ 0.345368 0.30417 0.914872 0.0
H_ H_ 0.338613 0.168398 0.518935 0.0
H_ H_ 0.478817 0.0491639 0.555703 0.0
H_ H_ 0.488187 0.0262596 0.977794 0.0
H_ H_ 0.338646 0.19698 0.712463 0.0
H_ H_ 0.27838 0.180935 0.692179 0.0
H_ H_ 0.288453 0.261143 0.70916 0.0
H_ H_ 0.316483 0.268593 0.662967 0.0
H_ H_ 0.262739 0.229983 0.654722 0.0
H_ H_ 0.370243 0.0311142 0.832161 0.0
H_ H_ 0.282582 0.165077 0.764894 0.0
H_ H_ 0.319149 0.0488176 0.793657 0.0
H_ H_ 0.279104 0.0239435 0.723979 0.0
H_ H_ 0.304588 0.205969 0.944679 0.0
H_ H_ 0.357432 0.18369 0.938931 0.0
H_ H_ 0.392058 0.26659 0.902345 0.0
H_ H_ 0.414828 0.228596 0.898053 0.0
H_ H_ 0.412681 0.263757 0.95049 0.0
H_ H_ 0.406768 0.0299725 0.582603 0.0
H_ H_ 0.407525 0.167255 0.98207 0.0
H_ H_ 0.28215 0.285641 0.951275 0.0
H_ H_ 0.262201 0.305004 0.523469 0.0
H_ H_ 0.414686 0.0805856 0.778431 0.0
H_ H_ 0.468762 0.144066 0.812217 0.0
H_ H_ 0.496134 0.108167 0.857894 0.0
H_ H_ 0.470899 0.0665116 0.806618 0.0
H_ H_ 0.450458 0.0711115 0.859682 0.0
H_ H_ 0.387932 0.304292 0.676629 0.0
C_ C_ 0.462827 0.194115 0.727884 0.0
C_ C_ 0.253656 0.254137 0.798299 0.0
C_ C_ 0.476444 0.240497 0.757734 0.0
C_ C_ 0.444667 0.261923 0.706991 0.0
C_ C_ 0.440155 0.184349 0.688715 0.0
C_ C_ 0.420873 0.161147 0.621765 0.0
C_ C_ 0.428725 0.215861 0.680634 0.0
C_ C_ 0.465727 0.273408 0.747736 0.0
C_ C_ 0.398063 0.126461 0.578959 0.0
C_ C_ 0.35792 0.0908965 0.583516 0.0
C_ C_ 0.311337 0.143013 0.525374 0.0
C_ C_ 0.312945 0.0795059 0.950153 0.0
C_ C_ 0.299638 0.0924305 0.992849 0.0
C_ C_ 0.496526 0.0734745 0.541634 0.0
C_ C_ 0.298725 0.152344 0.565072 0.0
C_ C_ 0.299184 0.171694 0.632563 0.0
C_ C_ 0.265008 0.119055 0.572755 0.0
C_ C_ 0.263761 0.0601635 0.00201227 0.0
C_ C_ 0.301721 0.203414 0.676773 0.0
C_ C_ 0.292808 0.243097 0.676322 0.0
C_ C_ 0.290134 0.139352 0.770478 0.0
C_ C_ 0.497061 0.0771147 0.701091 0.0
C_ C_ 0.277633 0.0930301 0.738018 0.0
C_ C_ 0.317291 0.0751408 0.78339 0.0
C_ C_ 0.317731 0.152649 0.807807 0.0
C_ C_ 0.333419 0.171635 0.874389 0.0
C_ C_ 0.33026 0.120827 0.814367 0.0
C_ C_ 0.290773 0.0607524 0.746588 0.0
C_ C_ 0.354276 0.205439 0.918665 0.0
C_ C_ 0.395305 0.242913 0.916622 0.0
C_ C_ 0.433307 0.193411 0.976383 0.0
C_ C_ 0.442357 0.253519 0.552763 0.0
C_ C_ 0.455885 0.2406 0.509204 0.0
C_ C_ 0.254696 0.258706 0.958201 0.0
C_ C_ 0.449781 0.18112 0.939703 0.0
C_ C_ 0.451009 0.158109 0.872139 0.0
C_ C_ 0.484927 0.211955 0.930311 0.0
C_ C_ 0.491992 0.272667 0.49826 0.0
C_ C_ 0.449272 0.122314 0.830603 0.0
C_ C_ 0.466311 0.0895679 0.836637 0.0
N_ N_ 0.435544 0.149911 0.651946 0.0
N_ N_ 0.416257 0.201599 0.638619 0.0
N_ N_ 0.321478 0.186561 0.602193 0.0
N_ N_ 0.26329 0.131914 0.61455 0.0
N_ N_ 0.319358 0.184506 0.846211 0.0
N_ N_ 0.341471 0.132737 0.856131 0.0
N_ N_ 0.428115 0.147291 0.902621 0.0
N_ N_ 0.486818 0.198407 0.888563 0.0
O_ O_ 0.262771 0.294001 0.824806 0.0
O_ O_ 0.321561 0.293408 0.893974 0.0
O_ O_ 0.270304 0.229209 0.805007 0.0
O_ O_ 0.41996 0.102912 0.55642 0.0
O_ O_ 0.290126 0.0414435 0.919931 0.0
O_ O_ 0.355447 0.0408651 0.854514 0.0
O_ O_ 0.346452 0.106494 0.944378 0.0
O_ O_ 0.341235 0.219823 0.697609 0.0
O_ O_ 0.489895 0.038207 0.672083 0.0
O_ O_ 0.429589 0.041261 0.605091 0.0
O_ O_ 0.486003 0.105341 0.6932 0.0
O_ O_ 0.327932 0.226471 0.935684 0.0
O_ O_ 0.462904 0.29312 0.579376 0.0
O_ O_ 0.394575 0.292355 0.647733 0.0
O_ O_ 0.404383 0.230183 0.558173 0.0
O_ O_ 0.410635 0.0966901 0.805851 0.0
Zn Zn 0.284042 0.553602 0.361963 0.0
Zn Zn 0.366402 0.440553 0.391193 0.0
Zn Zn 0.464683 0.442201 0.141122 0.0
Zn Zn 0.382336 0.553878 0.10897 0.0
Zn Zn 0.306815 0.663529 0.374566 0.0
Zn Zn 0.437136 0.664124 0.124468 0.0
H_ H_ 0.475991 0.50638 0.23047 0.0
H_ H_ 0.428487 0.615274 0.201372 0.0
H_ H_ 0.476985 0.641042 0.267966 0.0
H_ H_ 0.442936 0.455779 0.0463809 0.0
H_ H_ 0.39431 0.476983 0.0592536 0.0
H_ H_ 0.354585 0.406116 0.107768 0.0
H_ H_ 0.340906 0.449635 0.106409 0.0
H_ H_ 0.3342 0.402822 0.0556072 0.0
H_ H_ 0.352125 0.628701 0.399036 0.0
H_ H_ 0.347989 0.494474 0.016381 0.0
H_ H_ 0.473569 0.380804 0.0536026 0.0
H_ H_ 0.486618 0.366263 0.476208 0.0
H_ H_ 0.346175 0.569993 0.219955 0.0
H_ H_ 0.284459 0.520896 0.188864 0.0
H_ H_ 0.292849 0.59682 0.204472 0.0
H_ H_ 0.317414 0.604676 0.157341 0.0
H_ H_ 0.264171 0.566713 0.153004 0.0
H_ H_ 0.362968 0.364321 0.331209 0.0
H_ H_ 0.288206 0.499986 0.263186 0.0
H_ H_ 0.312873 0.379131 0.296197 0.0
H_ H_ 0.26578 0.356765 0.23056 0.0
H_ H_ 0.318004 0.551218 0.467309 0.0
H_ H_ 0.356539 0.517283 0.440764 0.0
H_ H_ 0.414489 0.564829 0.415718 0.0
H_ H_ 0.395952 0.603801 0.452721 0.0
H_ H_ 0.387456 0.58735 0.392175 0.0
H_ H_ 0.404434 0.372401 0.0954553 0.0
H_ H_ 0.408255 0.504663 0.484567 0.0
H_ H_ 0.285189 0.608147 0.454821 0.0
H_ H_ 0.252988 0.638756 0.0212079 0.0
H_ H_ 0.407315 0.423087 0.280034 0.0
H_ H_ 0.468052 0.478746 0.308171 0.0
H_ H_ 0.490377 0.441141 0.349654 0.0
H_ H_ 0.457356 0.402964 0.299712 0.0
H_ H_ 0.433278 0.393754 0.343395 0.0
H_ H_ 0.382852 0.634002 0.166421 0.0
C_ C_ 0.464101 0.528447 0.226135 0.0
C_ C_ 0.250261 0.584111 0.29901 0.0
C_ C_ 0.477052 0.574541 0.255211 0.0
C_ C_ 0.441254 0.593297 0.206264 0.0
C_ C_ 0.435467 0.513073 0.189533 0.0
C_ C_ 0.422329 0.493868 0.120328 0.0
C_ C_ 0.423603 0.545487 0.179898 0.0
C_ C_ 0.467723 0.607253 0.243859 0.0
C_ C_ 0.398005 0.457376 0.0796609 0.0
C_ C_ 0.353951 0.426781 0.0872085 0.0
C_ C_ 0.319145 0.470284 0.0215381 0.0
C_ C_ 0.31502 0.409934 0.457106 0.0
C_ C_ 0.301903 0.423029 0.499065 0.0
C_ C_ 0.496171 0.406264 0.0420442 0.0
C_ C_ 0.301901 0.483526 0.0592862 0.0
C_ C_ 0.298816 0.504159 0.125558 0.0
C_ C_ 0.265452 0.454326 0.0663131 0.0
C_ C_ 0.271768 0.390385 0.512661 0.0
C_ C_ 0.305496 0.539253 0.170021 0.0
C_ C_ 0.293948 0.578914 0.171549 0.0
C_ C_ 0.285847 0.470687 0.272568 0.0
C_ C_ 0.495648 0.409502 0.203421 0.0
C_ C_ 0.270304 0.424543 0.243878 0.0
C_ C_ 0.303965 0.404173 0.290096 0.0
C_ C_ 0.309524 0.480061 0.310368 0.0
C_ C_ 0.331331 0.503046 0.375863 0.0
C_ C_ 0.319497 0.447419 0.317198 0.0
C_ C_ 0.280306 0.393043 0.253088 0.0
C_ C_ 0.348529 0.53537 0.420421 0.0
C_ C_ 0.388539 0.575688 0.419723 0.0
C_ C_ 0.433269 0.530056 0.477478 0.0
C_ C_ 0.440433 0.588585 0.050456 0.0
C_ C_ 0.456748 0.574367 0.00825225 0.0
C_ C_ 0.254771 0.586409 0.45805 0.0
C_ C_ 0.448925 0.516394 0.439944 0.0
C_ C_ 0.450368 0.493119 0.372216 0.0
C_ C_ 0.485173 0.548374 0.431222 0.0
C_ C_ 0.49197 0.606831 0.998098 0.0
C_ C_ 0.444811 0.459137 0.327809 0.0
C_ C_ 0.456342 0.422507 0.331358 0.0
N_ N_ 0.436776 0.482165 0.151693 0.0
N_ N_ 0.415249 0.533222 0.137961 0.0
N_ N_ 0.324472 0.513623 0.0967885 0.0
N_ N_ 0.262315 0.467172 0.108092 0.0
N_ N_ 0.314652 0.514807 0.347201 0.0
N_ N_ 0.335588 0.462124 0.358761 0.0
N_ N_ 0.426915 0.483623 0.403081 0.0
N_ N_ 0.484791 0.533517 0.389342 0.0
O_ O_ 0.253422 0.619321 0.330536 0.0
O_ O_ 0.324579 0.622049 0.392739 0.0
O_ O_ 0.262741 0.556121 0.306222 0.0
O_ O_ 0.420591 0.434664 0.0578142 0.0
O_ O_ 0.291671 0.371833 0.428972 0.0
O_ O_ 0.352199 0.376505 0.356944 0.0
O_ O_ 0.350117 0.436697 0.449201 0.0
O_ O_ 0.346882 0.557772 0.189277 0.0
O_ O_ 0.491193 0.372123 0.172991 0.0
O_ O_ 0.429867 0.379854 0.10983 0.0
O_ O_ 0.478329 0.435251 0.198083 0.0
O_ O_ 0.321773 0.555305 0.438987 0.0
O_ O_ 0.461271 0.628032 0.078363 0.0
O_ O_ 0.392803 0.620883 0.141023 0.0
O_ O_ 0.404627 0.562242 0.0528589 0.0
O_ O_ 0.404649 0.438456 0.31044 0.0
Zn Zn 0.284797 0.558902 0.864709 0.0
Zn Zn 0.366387 0.442401 0.892083 0.0
Zn Zn 0.466227 0.444086 0.640967 0.0
Zn Zn 0.382503 0.557006 0.60838 0.0
Zn Zn 0.309282 0.667571 0.875689 0.0
Zn Zn 0.442134 0.664934 0.62403 0.0
H_ H_ 0.482083 0.510374 0.72849 0.0
H_ H_ 0.437006 0.62106 0.701785 0.0
H_ H_ 0.466962 0.635214 0.775081 0.0
H_ H_ 0.440189 0.456837 0.532732 0.0
H_ H_ 0.392966 0.479232 0.557112 0.0
H_ H_ 0.350858 0.394936 0.551061 0.0
H_ H_ 0.371397 0.410753 0.605489 0.0
H_ H_ 0.342412 0.436493 0.588614 0.0
H_ H_ 0.346581 0.636033 0.915892 0.0
H_ H_ 0.339737 0.496907 0.510211 0.0
H_ H_ 0.474302 0.381396 0.551503 0.0
H_ H_ 0.494877 0.355889 0.981488 0.0
H_ H_ 0.339867 0.54705 0.716371 0.0
H_ H_ 0.280123 0.524156 0.688207 0.0
H_ H_ 0.304964 0.592068 0.639793 0.0
H_ H_ 0.25744 0.55463 0.643831 0.0
H_ H_ 0.287051 0.599669 0.691491 0.0
H_ H_ 0.372941 0.361307 0.838973 0.0
H_ H_ 0.280928 0.498122 0.771139 0.0
H_ H_ 0.326241 0.38765 0.797336 0.0
H_ H_ 0.288618 0.365001 0.73007 0.0
H_ H_ 0.330636 0.573294 0.978413 0.0
H_ H_ 0.352925 0.516092 0.94495 0.0
H_ H_ 0.404396 0.594685 0.961398 0.0
H_ H_ 0.386017 0.605404 0.919516 0.0
H_ H_ 0.406414 0.562489 0.906854 0.0
H_ H_ 0.415139 0.366612 0.578033 0.0
H_ H_ 0.411857 0.503662 0.98681 0.0
H_ H_ 0.270394 0.62007 0.950212 0.0
H_ H_ 0.263186 0.632843 0.522288 0.0
H_ H_ 0.406371 0.456596 0.78787 0.0
H_ H_ 0.469776 0.480997 0.811689 0.0
H_ H_ 0.492963 0.440266 0.849159 0.0
H_ H_ 0.453393 0.396971 0.801269 0.0
H_ H_ 0.441416 0.40576 0.850801 0.0
H_ H_ 0.383919 0.635691 0.669667 0.0
C_ C_ 0.465996 0.530627 0.723621 0.0
C_ C_ 0.253893 0.592025 0.799764 0.0
C_ C_ 0.473151 0.571845 0.756481 0.0
C_ C_ 0.439074 0.593027 0.708212 0.0
C_ C_ 0.439592 0.517759 0.6861 0.0
C_ C_ 0.423223 0.496194 0.619402 0.0
C_ C_ 0.423666 0.546427 0.680338 0.0
C_ C_ 0.457477 0.602292 0.750429 0.0
C_ C_ 0.403904 0.4637 0.57542 0.0
C_ C_ 0.366564 0.424278 0.580185 0.0
C_ C_ 0.320294 0.471009 0.525368 0.0
C_ C_ 0.315554 0.409097 0.952539 0.0
C_ C_ 0.296759 0.42568 0.990242 0.0
C_ C_ 0.497898 0.407222 0.543289 0.0
C_ C_ 0.302937 0.483337 0.563546 0.0
C_ C_ 0.303037 0.504484 0.631774 0.0
C_ C_ 0.268954 0.451861 0.572119 0.0
C_ C_ 0.258336 0.393936 0.997893 0.0
C_ C_ 0.303406 0.540738 0.669702 0.0
C_ C_ 0.289163 0.575229 0.661535 0.0
C_ C_ 0.288112 0.472468 0.776834 0.0
C_ C_ 0.496935 0.410328 0.702107 0.0
C_ C_ 0.281546 0.430643 0.744171 0.0
C_ C_ 0.313021 0.409589 0.793447 0.0
C_ C_ 0.312811 0.485194 0.815564 0.0
C_ C_ 0.328105 0.504294 0.882305 0.0
C_ C_ 0.32453 0.453745 0.823003 0.0
C_ C_ 0.292383 0.398387 0.754035 0.0
C_ C_ 0.345531 0.53661 0.927796 0.0
C_ C_ 0.387802 0.576159 0.928011 0.0
C_ C_ 0.434695 0.528794 0.977195 0.0
C_ C_ 0.440784 0.585185 0.54993 0.0
C_ C_ 0.455983 0.574064 0.509378 0.0
C_ C_ 0.251209 0.592259 0.961593 0.0
C_ C_ 0.450488 0.517395 0.938532 0.0
C_ C_ 0.450215 0.494739 0.871519 0.0
C_ C_ 0.485681 0.547943 0.931646 0.0
C_ C_ 0.491568 0.607296 0.498455 0.0
C_ C_ 0.446119 0.45994 0.827013 0.0
C_ C_ 0.460503 0.424482 0.832709 0.0
N_ N_ 0.439002 0.48556 0.649341 0.0
N_ N_ 0.412412 0.53291 0.637827 0.0
N_ N_ 0.324588 0.516574 0.59993 0.0
N_ N_ 0.267008 0.465582 0.613845 0.0
N_ N_ 0.312248 0.515401 0.852967 0.0
N_ N_ 0.336053 0.465942 0.864949 0.0
N_ N_ 0.427981 0.482712 0.901144 0.0
N_ N_ 0.486824 0.533628 0.889014 0.0
O_ O_ 0.265286 0.632883 0.824741 0.0
O_ O_ 0.322542 0.625071 0.895765 0.0
O_ O_ 0.269467 0.565912 0.807494 0.0
O_ O_ 0.429877 0.443771 0.554928 0.0
O_ O_ 0.290438 0.376589 0.919514 0.0
O_ O_ 0.356861 0.375972 0.855501 0.0
O_ O_ 0.351293 0.434422 0.949025 0.0
O_ O_ 0.34244 0.562256 0.694997 0.0
O_ O_ 0.491715 0.372538 0.672722 0.0
O_ O_ 0.431205 0.376545 0.606384 0.0
O_ O_ 0.489409 0.442013 0.694278 0.0
O_ O_ 0.321092 0.557717 0.947007 0.0
O_ O_ 0.460643 0.624676 0.579337 0.0
O_ O_ 0.392945 0.623318 0.641865 0.0
O_ O_ 0.4047 0.557104 0.553821 0.0
O_ O_ 0.406808 0.440793 0.806485 0.0
Zn Zn 0.280671 0.8872 0.363352 0.0
Zn Zn 0.365628 0.773312 0.387598 0.0
Zn Zn 0.463871 0.774675 0.141498 0.0
Zn Zn 0.386646 0.888837 0.111695 0.0
Zn Zn 0.305713 0.999906 0.379164 0.0
Zn Zn 0.445222 0.000567192 0.125841 0.0
H_ H_ 0.475926 0.836871 0.229351 0.0
H_ H_ 0.450873 0.954878 0.192941 0.0
H_ H_ 0.484599 0.9787 0.265373 0.0
H_ H_ 0.442138 0.785838 0.0474985 0.0
H_ H_ 0.395133 0.809145 0.0609406 0.0
H_ H_ 0.342097 0.732535 0.0452193 0.0
H_ H_ 0.359723 0.730123 0.0970236 0.0
H_ H_ 0.340408 0.77374 0.100118 0.0
H_ H_ 0.332004 0.964157 0.427055 0.0
H_ H_ 0.34407 0.826838 0.0196303 0.0
H_ H_ 0.468287 0.713143 0.0506763 0.0
H_ H_ 0.489067 0.695185 0.476162 0.0
H_ H_ 0.347727 0.861327 0.201316 0.0
H_ H_ 0.281932 0.85182 0.191849 0.0
H_ H_ 0.308063 0.940586 0.197049 0.0
H_ H_ 0.315548 0.921189 0.143239 0.0
H_ H_ 0.267235 0.89903 0.154383 0.0
H_ H_ 0.358984 0.698357 0.328617 0.0
H_ H_ 0.268565 0.822248 0.268967 0.0
H_ H_ 0.315362 0.714115 0.297745 0.0
H_ H_ 0.286236 0.696903 0.224661 0.0
H_ H_ 0.309819 0.876362 0.46354 0.0
H_ H_ 0.352904 0.84828 0.437743 0.0
H_ H_ 0.398117 0.89111 0.389616 0.0
H_ H_ 0.404583 0.922188 0.448059 0.0
H_ H_ 0.378323 0.933856 0.408248 0.0
H_ H_ 0.402674 0.6989 0.0853953 0.0
H_ H_ 0.408053 0.836012 0.480401 0.0
H_ H_ 0.265635 0.952594 0.4438 0.0
H_ H_ 0.251 0.977713 0.020485 0.0
H_ H_ 0.408576 0.793295 0.292967 0.0
H_ H_ 0.47458 0.812572 0.314562 0.0
H_ H_ 0.459554 0.72589 0.305014 0.0
H_ H_ 0.439748 0.739107 0.35784 0.0
H_ H_ 0.492183 0.769865 0.353003 0.0
H_ H_ 0.389357 0.966491 0.171753 0.0
C_ C_ 0.466174 0.861949 0.226901 0.0
C_ C_ 0.250477 0.919451 0.299411 0.0
C_ C_ 0.478943 0.908493 0.257996 0.0
C_ C_ 0.451517 0.928102 0.203915 0.0
C_ C_ 0.44018 0.84985 0.190555 0.0
C_ C_ 0.418153 0.823653 0.125616 0.0
C_ C_ 0.430348 0.881944 0.181134 0.0
C_ C_ 0.472532 0.941815 0.243603 0.0
C_ C_ 0.400315 0.791161 0.0809487 0.0
C_ C_ 0.356743 0.753289 0.0800799 0.0
C_ C_ 0.31435 0.803158 0.0238635 0.0
C_ C_ 0.314286 0.741867 0.452898 0.0
C_ C_ 0.299042 0.75648 0.494682 0.0
C_ C_ 0.494522 0.740342 0.0416957 0.0
C_ C_ 0.30067 0.815819 0.0638242 0.0
C_ C_ 0.301839 0.835939 0.131485 0.0
C_ C_ 0.265411 0.786511 0.0721647 0.0
C_ C_ 0.266584 0.724834 0.505567 0.0
C_ C_ 0.307073 0.871759 0.174785 0.0
C_ C_ 0.299424 0.910314 0.168119 0.0
C_ C_ 0.283389 0.801822 0.271856 0.0
C_ C_ 0.496387 0.743436 0.203961 0.0
C_ C_ 0.275241 0.75951 0.241232 0.0
C_ C_ 0.312387 0.740952 0.289238 0.0
C_ C_ 0.308446 0.81516 0.311455 0.0
C_ C_ 0.324204 0.834233 0.378289 0.0
C_ C_ 0.324134 0.785681 0.31819 0.0
C_ C_ 0.29387 0.73044 0.247847 0.0
C_ C_ 0.344626 0.869725 0.4213 0.0
C_ C_ 0.384138 0.907916 0.41787 0.0
C_ C_ 0.433077 0.859837 0.474951 0.0
C_ C_ 0.440904 0.922906 0.0484319 0.0
C_ C_ 0.457604 0.908176 0.00850454 0.0
C_ C_ 0.245203 0.926349 0.455728 0.0
C_ C_ 0.448432 0.849191 0.436816 0.0
C_ C_ 0.451414 0.826712 0.369626 0.0
C_ C_ 0.484085 0.880171 0.429139 0.0
C_ C_ 0.492016 0.939203 0.998318 0.0
C_ C_ 0.45006 0.790786 0.328607 0.0
C_ C_ 0.461191 0.75526 0.337945 0.0
N_ N_ 0.432939 0.81181 0.155156 0.0
N_ N_ 0.415737 0.86508 0.140679 0.0
N_ N_ 0.325634 0.847078 0.10148 0.0
N_ N_ 0.263795 0.797656 0.11352 0.0
N_ N_ 0.306332 0.843933 0.348402 0.0
N_ N_ 0.333855 0.796867 0.360495 0.0
N_ N_ 0.427225 0.815293 0.398592 0.0
N_ N_ 0.486168 0.867807 0.387979 0.0
O_ O_ 0.256414 0.957552 0.329143 0.0
O_ O_ 0.319493 0.955397 0.398826 0.0
O_ O_ 0.264224 0.892799 0.305832 0.0
O_ O_ 0.424703 0.768414 0.0648779 0.0
O_ O_ 0.289638 0.704454 0.422084 0.0
O_ O_ 0.350911 0.708301 0.3547 0.0
O_ O_ 0.34733 0.770875 0.446108 0.0
O_ O_ 0.345495 0.887949 0.196546 0.0
O_ O_ 0.482268 0.701946 0.177606 0.0
O_ O_ 0.426547 0.707622 0.104331 0.0
O_ O_ 0.484615 0.771851 0.197548 0.0
O_ O_ 0.319356 0.89067 0.441641 0.0
O_ O_ 0.463123 0.962614 0.0760479 0.0
O_ O_ 0.400433 0.95619 0.144489 0.0
O_ O_ 0.410385 0.89302 0.0576286 0.0
O_ O_ 0.410325 0.769804 0.303501 0.0
Zn Zn 0.281557 0.887796 0.859781 0.0
Zn Zn 0.366613 0.775701 0.888544 0.0
Zn Zn 0.463482 0.772326 0.638922 0.0
Zn Zn 0.381696 0.887977 0.6098 0.0
Zn Zn 0.30936 0.99849 0.874299 0.0
Zn Zn 0.443973 0.997567 0.625642 0.0
H_ H_ 0.480866 0.840306 0.728608 0.0
H_ H_ 0.435606 0.95009 0.697219 0.0
H_ H_ 0.477192 0.976281 0.770052 0.0
H_ H_ 0.4484 0.796996 0.540098 0.0
H_ H_ 0.404094 0.819712 0.559064 0.0
H_ H_ 0.344378 0.770885 0.589515 0.0
H_ H_ 0.355025 0.736758 0.538094 0.0
H_ H_ 0.370504 0.734339 0.588093 0.0
H_ H_ 0.337888 0.961586 0.918087 0.0
H_ H_ 0.346305 0.827003 0.520618 0.0
H_ H_ 0.474034 0.712404 0.550915 0.0
H_ H_ 0.491965 0.691957 0.97695 0.0
H_ H_ 0.33845 0.892453 0.717301 0.0
H_ H_ 0.275522 0.859862 0.688295 0.0
H_ H_ 0.276259 0.929612 0.687524 0.0
H_ H_ 0.300404 0.9318 0.642492 0.0
H_ H_ 0.249255 0.887176 0.635906 0.0
H_ H_ 0.361612 0.692004 0.828867 0.0
H_ H_ 0.27421 0.824258 0.76477 0.0
H_ H_ 0.317907 0.716329 0.800159 0.0
H_ H_ 0.27398 0.689105 0.731843 0.0
H_ H_ 0.305474 0.878329 0.960726 0.0
H_ H_ 0.346648 0.845767 0.939999 0.0
H_ H_ 0.402217 0.9242 0.956731 0.0
H_ H_ 0.385644 0.932701 0.912733 0.0
H_ H_ 0.406002 0.891136 0.904347 0.0
H_ H_ 0.414961 0.696021 0.578534 0.0
H_ H_ 0.404563 0.841389 0.981707 0.0
H_ H_ 0.272197 0.956115 0.946143 0.0
H_ H_ 0.254043 0.972847 0.518666 0.0
H_ H_ 0.402238 0.759586 0.777989 0.0
H_ H_ 0.467741 0.813395 0.808841 0.0
H_ H_ 0.455813 0.735354 0.798415 0.0
H_ H_ 0.440205 0.735177 0.847372 0.0
H_ H_ 0.491778 0.776608 0.846465 0.0
H_ H_ 0.370321 0.961796 0.656429 0.0
C_ C_ 0.468262 0.863503 0.724547 0.0
C_ C_ 0.250631 0.919858 0.798417 0.0
C_ C_ 0.480933 0.909079 0.755595 0.0
C_ C_ 0.441687 0.925853 0.708484 0.0
C_ C_ 0.439419 0.848935 0.68938 0.0
C_ C_ 0.422332 0.828548 0.622171 0.0
C_ C_ 0.426073 0.879654 0.681769 0.0
C_ C_ 0.468423 0.941203 0.746891 0.0
C_ C_ 0.406753 0.79765 0.576811 0.0
C_ C_ 0.366875 0.75849 0.574209 0.0
C_ C_ 0.321769 0.799947 0.525855 0.0
C_ C_ 0.308571 0.746423 0.951992 0.0
C_ C_ 0.291833 0.759878 0.991576 0.0
C_ C_ 0.496858 0.73915 0.541587 0.0
C_ C_ 0.303476 0.814034 0.561352 0.0
C_ C_ 0.296634 0.838515 0.628624 0.0
C_ C_ 0.26663 0.785136 0.567448 0.0
C_ C_ 0.254539 0.728817 0.000244333 0.0
C_ C_ 0.29691 0.875535 0.667949 0.0
C_ C_ 0.280422 0.906795 0.656713 0.0
C_ C_ 0.283814 0.801446 0.771924 0.0
C_ C_ 0.49742 0.744054 0.701744 0.0
C_ C_ 0.274879 0.757332 0.740245 0.0
C_ C_ 0.311341 0.741113 0.789719 0.0
C_ C_ 0.310367 0.815658 0.808642 0.0
C_ C_ 0.326016 0.834361 0.876151 0.0
C_ C_ 0.325173 0.786386 0.816447 0.0
C_ C_ 0.288612 0.725648 0.748918 0.0
C_ C_ 0.342194 0.866715 0.921759 0.0
C_ C_ 0.385984 0.905973 0.924286 0.0
C_ C_ 0.432739 0.865185 0.975147 0.0
C_ C_ 0.442851 0.91929 0.549901 0.0
C_ C_ 0.454924 0.905192 0.506982 0.0
C_ C_ 0.248602 0.927486 0.956751 0.0
C_ C_ 0.449512 0.849702 0.939307 0.0
C_ C_ 0.45146 0.828689 0.871193 0.0
C_ C_ 0.486497 0.8797 0.931442 0.0
C_ C_ 0.49225 0.938084 0.496618 0.0
C_ C_ 0.446109 0.794122 0.826732 0.0
C_ C_ 0.460844 0.759675 0.830844 0.0
N_ N_ 0.436324 0.816365 0.651919 0.0
N_ N_ 0.414461 0.865627 0.638794 0.0
N_ N_ 0.323297 0.847104 0.599407 0.0
N_ N_ 0.260178 0.799759 0.608691 0.0
N_ N_ 0.309852 0.845245 0.847373 0.0
N_ N_ 0.336126 0.799067 0.858848 0.0
N_ N_ 0.426208 0.817246 0.900553 0.0
N_ N_ 0.486868 0.866717 0.888386 0.0
O_ O_ 0.268271 0.964202 0.819872 0.0
O_ O_ 0.320045 0.952224 0.892273 0.0
O_ O_ 0.266265 0.892937 0.803581 0.0
O_ O_ 0.43708 0.78175 0.559406 0.0
O_ O_ 0.286687 0.706234 0.922709 0.0
O_ O_ 0.354518 0.708006 0.855672 0.0
O_ O_ 0.344916 0.772357 0.94748 0.0
O_ O_ 0.336917 0.9033 0.692278 0.0
O_ O_ 0.488881 0.704414 0.6727 0.0
O_ O_ 0.430158 0.705635 0.606072 0.0
O_ O_ 0.483754 0.771132 0.695294 0.0
O_ O_ 0.315615 0.886495 0.935604 0.0
O_ O_ 0.464994 0.959424 0.579434 0.0
O_ O_ 0.392757 0.954613 0.645299 0.0
O_ O_ 0.406877 0.89226 0.554094 0.0
O_ O_ 0.403827 0.773589 0.80791 0.0
Zn Zn 0.535326 0.224291 0.359991 0.0
Zn Zn 0.616594 0.108244 0.389153 0.0
Zn Zn 0.714855 0.10999 0.139643 0.0
Zn Zn 0.631808 0.223028 0.109246 0.0
Zn Zn 0.55848 0.331657 0.375581 0.0
Zn Zn 0.691323 0.334463 0.125511 0.0
H_ H_ 0.727795 0.17425 0.226549 0.0
H_ H_ 0.678619 0.284001 0.204245 0.0
H_ H_ 0.726573 0.306734 0.269521 0.0
H_ H_ 0.686724 0.116783 0.0302067 0.0
H_ H_ 0.649724 0.150604 0.0548719 0.0
H_ H_ 0.600438 0.0752941 0.039772 0.0
H_ H_ 0.615932 0.0713355 0.0899657 0.0
H_ H_ 0.591829 0.106218 0.0909034 0.0
H_ H_ 0.586645 0.298684 0.426108 0.0
H_ H_ 0.591649 0.162053 0.0167815 0.0
H_ H_ 0.72441 0.0474641 0.0531056 0.0
H_ H_ 0.740694 0.0281932 0.478177 0.0
H_ H_ 0.594431 0.246392 0.222301 0.0
H_ H_ 0.533881 0.191909 0.193654 0.0
H_ H_ 0.550534 0.273711 0.19702 0.0
H_ H_ 0.564473 0.262786 0.143677 0.0
H_ H_ 0.512155 0.234756 0.156655 0.0
H_ H_ 0.620948 0.0301718 0.335226 0.0
H_ H_ 0.524529 0.160692 0.268589 0.0
H_ H_ 0.583834 0.0577284 0.289612 0.0
H_ H_ 0.548247 0.0397763 0.221793 0.0
H_ H_ 0.585138 0.238169 0.474557 0.0
H_ H_ 0.610497 0.189787 0.4401 0.0
H_ H_ 0.656485 0.26921 0.453139 0.0
H_ H_ 0.639538 0.271765 0.406102 0.0
H_ H_ 0.663624 0.237143 0.400152 0.0
H_ H_ 0.649961 0.0316513 0.0914149 0.0
H_ H_ 0.654994 0.175939 0.478319 0.0
H_ H_ 0.528972 0.287272 0.449389 0.0
H_ H_ 0.505437 0.305648 0.0203425 0.0
H_ H_ 0.653863 0.129447 0.29395 0.0
H_ H_ 0.719668 0.145931 0.309813 0.0
H_ H_ 0.73807 0.102632 0.343841 0.0
H_ H_ 0.701813 0.0655822 0.297531 0.0
H_ H_ 0.685046 0.0720523 0.350949 0.0
H_ H_ 0.632001 0.297414 0.167784 0.0
C_ C_ 0.715114 0.196618 0.224405 0.0
C_ C_ 0.500429 0.25225 0.299121 0.0
C_ C_ 0.726756 0.241946 0.255488 0.0
C_ C_ 0.690671 0.260697 0.209335 0.0
C_ C_ 0.685517 0.181173 0.18883 0.0
C_ C_ 0.669234 0.162594 0.121171 0.0
C_ C_ 0.67262 0.212251 0.182451 0.0
C_ C_ 0.713507 0.272521 0.24739 0.0
C_ C_ 0.655508 0.133902 0.0750619 0.0
C_ C_ 0.613695 0.0936962 0.0728872 0.0
C_ C_ 0.566722 0.137505 0.0239807 0.0
C_ C_ 0.562296 0.0768252 0.453792 0.0
C_ C_ 0.548719 0.0905239 0.495541 0.0
C_ C_ 0.747969 0.073343 0.0425326 0.0
C_ C_ 0.551758 0.149974 0.0613804 0.0
C_ C_ 0.549202 0.171736 0.12905 0.0
C_ C_ 0.515626 0.11948 0.0684688 0.0
C_ C_ 0.511564 0.0589786 0.503206 0.0
C_ C_ 0.554656 0.207549 0.171764 0.0
C_ C_ 0.546048 0.247353 0.166562 0.0
C_ C_ 0.540831 0.141499 0.271644 0.0
C_ C_ 0.747563 0.0779623 0.201879 0.0
C_ C_ 0.533295 0.0993818 0.237806 0.0
C_ C_ 0.567494 0.0783674 0.288092 0.0
C_ C_ 0.565075 0.153508 0.309979 0.0
C_ C_ 0.583241 0.174424 0.375764 0.0
C_ C_ 0.580633 0.123421 0.316117 0.0
C_ C_ 0.549695 0.069943 0.24633 0.0
C_ C_ 0.602872 0.208827 0.420745 0.0
C_ C_ 0.6436 0.248373 0.420647 0.0
C_ C_ 0.684539 0.197304 0.476513 0.0
C_ C_ 0.688523 0.256252 0.0478521 0.0
C_ C_ 0.702987 0.242927 0.0055945 0.0
C_ C_ 0.50634 0.260774 0.459594 0.0
C_ C_ 0.70053 0.182973 0.439578 0.0
C_ C_ 0.701428 0.162991 0.371909 0.0
C_ C_ 0.735577 0.214133 0.431476 0.0
C_ C_ 0.738788 0.274653 0.995637 0.0
C_ C_ 0.696372 0.127382 0.327423 0.0
C_ C_ 0.705989 0.0899169 0.331238 0.0
N_ N_ 0.684659 0.150245 0.149886 0.0
N_ N_ 0.661991 0.200788 0.14052 0.0
N_ N_ 0.572507 0.182832 0.0981568 0.0
N_ N_ 0.513732 0.133279 0.111798 0.0
N_ N_ 0.56482 0.183827 0.347438 0.0
N_ N_ 0.590465 0.13597 0.358689 0.0
N_ N_ 0.676713 0.152215 0.401875 0.0
N_ N_ 0.73665 0.20144 0.388848 0.0
O_ O_ 0.506442 0.290528 0.32909 0.0
O_ O_ 0.573265 0.288229 0.396585 0.0
O_ O_ 0.521129 0.231509 0.303537 0.0
O_ O_ 0.683828 0.118108 0.0599093 0.0
O_ O_ 0.537656 0.0398891 0.42254 0.0
O_ O_ 0.605962 0.0414178 0.356993 0.0
O_ O_ 0.595745 0.105192 0.446274 0.0
O_ O_ 0.594353 0.225445 0.192614 0.0
O_ O_ 0.73978 0.0387153 0.173183 0.0
O_ O_ 0.676743 0.0435937 0.10679 0.0
O_ O_ 0.733225 0.105269 0.196267 0.0
O_ O_ 0.574807 0.225497 0.442635 0.0
O_ O_ 0.710759 0.29465 0.0768263 0.0
O_ O_ 0.644037 0.289741 0.143225 0.0
O_ O_ 0.654255 0.228141 0.0537256 0.0
O_ O_ 0.655647 0.107888 0.307386 0.0
Zn Zn 0.534879 0.223832 0.859702 0.0
Zn Zn 0.616967 0.109484 0.890299 0.0
Zn Zn 0.715121 0.109502 0.640298 0.0
Zn Zn 0.633033 0.223849 0.609701 0.0
Zn Zn 0.558437 0.333327 0.874991 0.0
Zn Zn 0.691563 0.333339 0.625009 0.0
H_ H_ 0.723045 0.171771 0.732441 0.0
H_ H_ 0.68531 0.286011 0.699704 0.0
H_ H_ 0.724906 0.308529 0.770004 0.0
H_ H_ 0.693234 0.129319 0.543507 0.0
H_ H_ 0.641683 0.14545 0.558506 0.0
H_ H_ 0.594207 0.0638274 0.54932 0.0
H_ H_ 0.615519 0.0709896 0.601495 0.0
H_ H_ 0.588633 0.104488 0.596644 0.0
H_ H_ 0.590987 0.299473 0.919472 0.0
H_ H_ 0.594334 0.16145 0.517619 0.0
H_ H_ 0.720609 0.0474546 0.550174 0.0
H_ H_ 0.743407 0.0248519 0.979946 0.0
H_ H_ 0.596275 0.203923 0.706426 0.0
H_ H_ 0.532626 0.187899 0.691519 0.0
H_ H_ 0.54646 0.269555 0.700736 0.0
H_ H_ 0.562328 0.262351 0.648526 0.0
H_ H_ 0.510321 0.228917 0.653455 0.0
H_ H_ 0.616272 0.0338412 0.830431 0.0
H_ H_ 0.526955 0.161562 0.767559 0.0
H_ H_ 0.56469 0.0473223 0.800296 0.0
H_ H_ 0.525095 0.0248047 0.729996 0.0
H_ H_ 0.556766 0.204015 0.956493 0.0
H_ H_ 0.608317 0.187883 0.941494 0.0
H_ H_ 0.655793 0.269506 0.95068 0.0
H_ H_ 0.634481 0.262344 0.898505 0.0
H_ H_ 0.661367 0.228845 0.903356 0.0
H_ H_ 0.659013 0.0338604 0.580528 0.0
H_ H_ 0.655666 0.171883 0.982381 0.0
H_ H_ 0.529391 0.285879 0.949826 0.0
H_ H_ 0.506593 0.308481 0.520054 0.0
H_ H_ 0.653725 0.12941 0.793574 0.0
H_ H_ 0.717374 0.145435 0.808481 0.0
H_ H_ 0.70354 0.0637781 0.799264 0.0
H_ H_ 0.687672 0.0709824 0.851474 0.0
H_ H_ 0.739679 0.104416 0.846545 0.0
H_ H_ 0.633728 0.299492 0.669569 0.0
C_ C_ 0.71425 0.196457 0.726105 0.0
C_ C_ 0.502337 0.255315 0.797988 0.0
C_ C_ 0.726494 0.241398 0.756874 0.0
C_ C_ 0.690599 0.260292 0.708553 0.0
C_ C_ 0.688232 0.18358 0.688686 0.0
C_ C_ 0.670958 0.162459 0.621274 0.0
C_ C_ 0.675303 0.214198 0.680927 0.0
C_ C_ 0.714628 0.273393 0.747612 0.0
C_ C_ 0.649623 0.127632 0.577876 0.0
C_ C_ 0.609671 0.089414 0.581587 0.0
C_ C_ 0.566958 0.136824 0.523912 0.0
C_ C_ 0.560847 0.0779757 0.952007 0.0
C_ C_ 0.54544 0.0919161 0.993117 0.0
C_ C_ 0.745284 0.0731278 0.541378 0.0
C_ C_ 0.550596 0.149742 0.561317 0.0
C_ C_ 0.549092 0.17087 0.628723 0.0
C_ C_ 0.514631 0.119205 0.56904 0.0
C_ C_ 0.509514 0.0599805 0.00234335 0.0
C_ C_ 0.553929 0.205699 0.672137 0.0
C_ C_ 0.542678 0.243954 0.668461 0.0
C_ C_ 0.53575 0.136876 0.773895 0.0
C_ C_ 0.747663 0.0780178 0.702012 0.0
C_ C_ 0.523506 0.0919356 0.743126 0.0
C_ C_ 0.559401 0.0730416 0.791447 0.0
C_ C_ 0.561768 0.149753 0.811314 0.0
C_ C_ 0.579042 0.170875 0.878726 0.0
C_ C_ 0.574697 0.119135 0.819073 0.0
C_ C_ 0.535372 0.0599403 0.752388 0.0
C_ C_ 0.600377 0.205702 0.922124 0.0
C_ C_ 0.640329 0.243919 0.918413 0.0
C_ C_ 0.683042 0.196509 0.976088 0.0
C_ C_ 0.689153 0.255358 0.547993 0.0
C_ C_ 0.70456 0.241417 0.506883 0.0
C_ C_ 0.504716 0.260206 0.958622 0.0
C_ C_ 0.699404 0.183591 0.938683 0.0
C_ C_ 0.700908 0.162463 0.871277 0.0
C_ C_ 0.735369 0.214128 0.93096 0.0
C_ C_ 0.740486 0.273353 0.497657 0.0
C_ C_ 0.696071 0.127634 0.827863 0.0
C_ C_ 0.707322 0.0893793 0.831539 0.0
N_ N_ 0.686382 0.151132 0.651215 0.0
N_ N_ 0.664247 0.201114 0.638591 0.0
N_ N_ 0.573091 0.182122 0.598813 0.0
N_ N_ 0.513328 0.132314 0.611365 0.0
N_ N_ 0.563618 0.182201 0.848785 0.0
N_ N_ 0.585753 0.13222 0.861409 0.0
N_ N_ 0.676909 0.151211 0.901187 0.0
N_ N_ 0.736672 0.20102 0.888635 0.0
O_ O_ 0.51022 0.294618 0.826817 0.0
O_ O_ 0.573257 0.28974 0.89321 0.0
O_ O_ 0.516775 0.228064 0.803733 0.0
O_ O_ 0.675193 0.107836 0.557365 0.0
O_ O_ 0.539241 0.0386834 0.923174 0.0
O_ O_ 0.605963 0.0435925 0.856775 0.0
O_ O_ 0.595745 0.105192 0.946274 0.0
O_ O_ 0.594353 0.225445 0.692614 0.0
O_ O_ 0.73978 0.0387153 0.673183 0.0
O_ O_ 0.676743 0.0435937 0.60679 0.0
O_ O_ 0.733225 0.105269 0.696267 0.0
O_ O_ 0.574807 0.225497 0.942635 0.0
O_ O_ 0.710759 0.29465 0.576826 0.0
O_ O_ 0.644037 0.289741 0.643225 0.0
O_ O_ 0.654255 0.228141 0.553726 0.0
O_ O_ 0.655647 0.107888 0.807386 0.0
Zn Zn 0.534879 0.557165 0.359702 0.0
Zn Zn 0.616967 0.442818 0.390299 0.0
Zn Zn 0.715121 0.442835 0.140298 0.0
Zn Zn 0.633033 0.557182 0.109701 0.0
Zn Zn 0.558437 0.666661 0.374991 0.0
Zn Zn 0.691563 0.666673 0.125009 0.0
H_ H_ 0.723045 0.505104 0.232441 0.0
H_ H_ 0.68531 0.619344 0.199704 0.0
H_ H_ 0.724906 0.641862 0.270004 0.0
H_ H_ 0.693234 0.462652 0.0435068 0.0
H_ H_ 0.641683 0.478784 0.0585061 0.0
H_ H_ 0.594207 0.397161 0.04932 0.0
H_ H_ 0.615519 0.404323 0.101495 0.0
H_ H_ 0.588633 0.437822 0.0966441 0.0
H_ H_ 0.590987 0.632806 0.419472 0.0
H_ H_ 0.594334 0.494784 0.0176191 0.0
H_ H_ 0.720609 0.380788 0.0501739 0.0
H_ H_ 0.743407 0.358185 0.479946 0.0
H_ H_ 0.596275 0.537257 0.206426 0.0
H_ H_ 0.532626 0.521232 0.191519 0.0
H_ H_ 0.54646 0.602889 0.200736 0.0
H_ H_ 0.562328 0.595684 0.148526 0.0
H_ H_ 0.510321 0.562251 0.153455 0.0
H_ H_ 0.616272 0.367175 0.330431 0.0
H_ H_ 0.526955 0.494896 0.267559 0.0
H_ H_ 0.56469 0.380656 0.300296 0.0
H_ H_ 0.525095 0.358138 0.229996 0.0
H_ H_ 0.556766 0.537348 0.456493 0.0
H_ H_ 0.608317 0.521216 0.441494 0.0
H_ H_ 0.655793 0.602839 0.45068 0.0
H_ H_ 0.634481 0.595677 0.398505 0.0
H_ H_ 0.661367 0.562178 0.403356 0.0
H_ H_ 0.659013 0.367194 0.0805278 0.0
H_ H_ 0.655666 0.505216 0.482381 0.0
H_ H_ 0.529391 0.619212 0.449826 0.0
H_ H_ 0.506593 0.641815 0.0200538 0.0
H_ H_ 0.653725 0.462743 0.293574 0.0
H_ H_ 0.717374 0.478768 0.308481 0.0
H_ H_ 0.70354 0.397111 0.299264 0.0
H_ H_ 0.687672 0.404316 0.351474 0.0
H_ H_ 0.739679 0.437749 0.346545 0.0
H_ H_ 0.633728 0.632825 0.169569 0.0
C_ C_ 0.71425 0.52979 0.226105 0.0
C_ C_ 0.502337 0.588649 0.297988 0.0
C_ C_ 0.726494 0.574731 0.256874 0.0
C_ C_ 0.690599 0.593625 0.208553 0.0
C_ C_ 0.688232 0.516914 0.188686 0.0
C_ C_ 0.670958 0.495792 0.121274 0.0
C_ C_ 0.675303 0.547532 0.180927 0.0
C_ C_ 0.714628 0.606726 0.247612 0.0
C_ C_ 0.649623 0.460965 0.0778759 0.0
C_ C_ 0.609671 0.422747 0.0815868 0.0
C_ C_ 0.566958 0.470157 0.0239115 0.0
C_ C_ 0.560847 0.411309 0.452007 0.0
C_ C_ 0.54544 0.425249 0.493117 0.0
C_ C_ 0.745284 0.406461 0.041378 0.0
C_ C_ 0.550596 0.483075 0.0613173 0.0
C_ C_ 0.549092 0.504203 0.128723 0.0
C_ C_ 0.514631 0.452538 0.0690396 0.0
C_ C_ 0.509514 0.393314 0.502343 0.0
C_ C_ 0.553929 0.539032 0.172137 0.0
C_ C_ 0.542678 0.577287 0.168461 0.0
C_ C_ 0.53575 0.47021 0.273895 0.0
C_ C_ 0.747663 0.411351 0.202012 0.0
C_ C_ 0.523506 0.425269 0.243126 0.0
C_ C_ 0.559401 0.406375 0.291447 0.0
C_ C_ 0.561768 0.483086 0.311314 0.0
C_ C_ 0.579042 0.504208 0.378726 0.0
C_ C_ 0.574697 0.452468 0.319073 0.0
C_ C_ 0.535372 0.393274 0.252388 0.0
C_ C_ 0.600377 0.539035 0.422124 0.0
C_ C_ 0.640329 0.577253 0.418413 0.0
C_ C_ 0.683042 0.529843 0.476088 0.0
C_ C_ 0.689153 0.588691 0.0479926 0.0
C_ C_ 0.70456 0.574751 0.0068833 0.0
C_ C_ 0.504716 0.593539 0.458622 0.0
C_ C_ 0.699404 0.516925 0.438683 0.0
C_ C_ 0.700908 0.495797 0.371277 0.0
C_ C_ 0.735369 0.547462 0.43096 0.0
C_ C_ 0.740486 0.606686 0.997657 0.0
C_ C_ 0.696071 0.460968 0.327863 0.0
C_ C_ 0.707322 0.422713 0.331539 0.0
N_ N_ 0.686382 0.484466 0.151215 0.0
N_ N_ 0.664247 0.534447 0.138591 0.0
N_ N_ 0.573091 0.515455 0.0988134 0.0
N_ N_ 0.513328 0.465647 0.111365 0.0
N_ N_ 0.563618 0.515534 0.348785 0.0
N_ N_ 0.585753 0.465553 0.361409 0.0
N_ N_ 0.676909 0.484545 0.401187 0.0
N_ N_ 0.736672 0.534353 0.388635 0.0
O_ O_ 0.51022 0.627951 0.326817 0.0
O_ O_ 0.573257 0.623073 0.39321 0.0
O_ O_ 0.516775 0.561398 0.303733 0.0
O_ O_ 0.675193 0.441169 0.0573651 0.0
O_ O_ 0.539241 0.372017 0.423174 0.0
O_ O_ 0.605963 0.376926 0.356775 0.0
O_ O_ 0.595745 0.438525 0.446274 0.0
O_ O_ 0.594353 0.558778 0.192614 0.0
O_ O_ 0.73978 0.372049 0.173183 0.0
O_ O_ 0.676743 0.376927 0.10679 0.0
O_ O_ 0.733225 0.438602 0.196267 0.0
O_ O_ 0.574807 0.558831 0.442635 0.0
O_ O_ 0.710759 0.627983 0.0768263 0.0
O_ O_ 0.644037 0.623074 0.143225 0.0
O_ O_ 0.654255 0.561475 0.0537256 0.0
O_ O_ 0.655647 0.441222 0.307386 0.0
Zn Zn 0.534879 0.557165 0.859702 0.0
Zn Zn 0.616967 0.442818 0.890299 0.0
Zn Zn 0.715121 0.442835 0.640298 0.0
Zn Zn 0.633033 0.557182 0.609701 0.0
Zn Zn 0.558437 0.666661 0.874991 0.0
Zn Zn 0.691563 0.666673 0.625009 0.0
H_ H_ 0.723045 0.505104 0.732441 0.0
H_ H_ 0.68531 0.619344 0.699704 0.0
H_ H_ 0.724906 0.641862 0.770004 0.0
H_ H_ 0.693234 0.462652 0.543507 0.0
H_ H_ 0.641683 0.478784 0.558506 0.0
H_ H_ 0.594207 0.397161 0.54932 0.0
H_ H_ 0.615519 0.404323 0.601495 0.0
H_ H_ 0.588633 0.437822 0.596644 0.0
H_ H_ 0.590987 0.632806 0.919472 0.0
H_ H_ 0.594334 0.494784 0.517619 0.0
H_ H_ 0.720609 0.380788 0.550174 0.0
H_ H_ 0.743407 0.358185 0.979946 0.0
H_ H_ 0.596275 0.537257 0.706426 0.0
H_ H_ 0.532626 0.521232 0.691519 0.0
H_ H_ 0.54646 0.602889 0.700736 0.0
H_ H_ 0.562328 0.595684 0.648526 0.0
H_ H_ 0.510321 0.562251 0.653455 0.0
H_ H_ 0.616272 0.367175 0.830431 0.0
H_ H_ 0.526955 0.494896 0.767559 0.0
H_ H_ 0.56469 0.380656 0.800296 0.0
H_ H_ 0.525095 0.358138 0.729996 0.0
H_ H_ 0.556766 0.537348 0.956493 0.0
H_ H_ 0.608317 0.521216 0.941494 0.0
H_ H_ 0.655793 0.602839 0.95068 0.0
H_ H_ 0.634481 0.595677 0.898505 0.0
H_ H_ 0.661367 0.562178 0.903356 0.0
H_ H_ 0.659013 0.367194 0.580528 0.0
H_ H_ 0.655666 0.505216 0.982381 0.0
H_ H_ 0.529391 0.619212 0.949826 0.0
H_ H_ 0.506593 0.641815 0.520054 0.0
H_ H_ 0.653725 0.462743 0.793574 0.0
H_ H_ 0.717374 0.478768 0.808481 0.0
H_ H_ 0.70354 0.397111 0.799264 0.0
H_ H_ 0.687672 0.404316 0.851474 0.0
H_ H_ 0.739679 0.437749 0.846545 0.0
H_ H_ 0.633728 0.632825 0.669569 0.0
C_ C_ 0.71425 0.52979 0.726105 0.0
C_ C_ 0.502337 0.588649 0.797988 0.0
C_ C_ 0.726494 0.574731 0.756874 0.0
C_ C_ 0.690599 0.593625 0.708553 0.0
C_ C_ 0.688232 0.516914 0.688686 0.0
C_ C_ 0.670958 0.495792 0.621274 0.0
C_ C_ 0.675303 0.547532 0.680927 0.0
C_ C_ 0.714628 0.606726 0.747612 0.0
C_ C_ 0.649623 0.460965 0.577876 0.0
C_ C_ 0.609671 0.422747 0.581587 0.0
C_ C_ 0.566958 0.470157 0.523912 0.0
C_ C_ 0.560847 0.411309 0.952007 0.0
C_ C_ 0.54544 0.425249 0.993117 0.0
C_ C_ 0.745284 0.406461 0.541378 0.0
C_ C_ 0.550596 0.483075 0.561317 0.0
C_ C_ 0.549092 0.504203 0.628723 0.0
C_ C_ 0.514631 0.452538 0.56904 0.0
C_ C_ 0.509514 0.393314 0.00234335 0.0
C_ C_ 0.553929 0.539032 0.672137 0.0
C_ C_ 0.542678 0.577287 0.668461 0.0
C_ C_ 0.53575 0.47021 0.773895 0.0
C_ C_ 0.747663 0.411351 0.702012 0.0
C_ C_ 0.523506 0.425269 0.743126 0.0
C_ C_ 0.559401 0.406375 0.791447 0.0
C_ C_ 0.561768 0.483086 0.811314 0.0
C_ C_ 0.579042 0.504208 0.878726 0.0
C_ C_ 0.574697 0.452468 0.819073 0.0
C_ C_ 0.535372 0.393274 0.752388 0.0
C_ C_ 0.600377 0.539035 0.922124 0.0
C_ C_ 0.640329 0.577253 0.918413 0.0
C_ C_ 0.683042 0.529843 0.976088 0.0
C_ C_ 0.689153 0.588691 0.547993 0.0
C_ C_ 0.70456 0.574751 0.506883 0.0
C_ C_ 0.504716 0.593539 0.958622 0.0
C_ C_ 0.699404 0.516925 0.938683 0.0
C_ C_ 0.700908 0.495797 0.871277 0.0
C_ C_ 0.735369 0.547462 0.93096 0.0
C_ C_ 0.740486 0.606686 0.497657 0.0
C_ C_ 0.696071 0.460968 0.827863 0.0
C_ C_ 0.707322 0.422713 0.831539 0.0
N_ N_ 0.686382 0.484466 0.651215 0.0
N_ N_ 0.664247 0.534447 0.638591 0.0
N_ N_ 0.573091 0.515455 0.598813 0.0
N_ N_ 0.513328 0.465647 0.611365 0.0
N_ N_ 0.563618 0.515534 0.848785 0.0
N_ N_ 0.585753 0.465553 0.861409 0.0
N_ N_ 0.676909 0.484545 0.901187 0.0
N_ N_ 0.736672 0.534353 0.888635 0.0
O_ O_ 0.51022 0.627951 0.826817 0.0
O_ O_ 0.573257 0.623073 0.89321 0.0
O_ O_ 0.516775 0.561398 0.803733 0.0
O_ O_ 0.675193 0.441169 0.557365 0.0
O_ O_ 0.539241 0.372017 0.923174 0.0
O_ O_ 0.605963 0.376926 0.856775 0.0
O_ O_ 0.595745 0.438525 0.946274 0.0
O_ O_ 0.594353 0.558778 0.692614 0.0
O_ O_ 0.73978 0.372049 0.673183 0.0
O_ O_ 0.676743 0.376927 0.60679 0.0
O_ O_ 0.733225 0.438602 0.696267 0.0
O_ O_ 0.574807 0.558831 0.942635 0.0
O_ O_ 0.710759 0.627983 0.576826 0.0
O_ O_ 0.644037 0.623074 0.643225 0.0
O_ O_ 0.654255 0.561475 0.553726 0.0
O_ O_ 0.655647 0.441222 0.807386 0.0
Zn Zn 0.534879 0.890498 0.359702 0.0
Zn Zn 0.616967 0.776151 0.390299 0.0
Zn Zn 0.715121 0.776168 0.140298 0.0
Zn Zn 0.633033 0.890516 0.109701 0.0
Zn Zn 0.558437 0.999994 0.374991 0.0
Zn Zn 0.691563 6.10563e-06 0.125009 0.0
H_ H_ 0.723045 0.838438 0.232441 0.0
H_ H_ 0.68531 0.952678 0.199704 0.0
H_ H_ 0.724905 0.975195 0.270003 0.0
H_ H_ 0.693234 0.795985 0.0435068 0.0
H_ H_ 0.641683 0.812117 0.0585061 0.0
H_ H_ 0.594207 0.730494 0.04932 0.0
H_ H_ 0.615519 0.737656 0.101495 0.0
H_ H_ 0.588633 0.771155 0.0966441 0.0
H_ H_ 0.590987 0.96614 0.419472 0.0
H_ H_ 0.594334 0.828117 0.0176191 0.0
H_ H_ 0.720609 0.714121 0.0501739 0.0
H_ H_ 0.743407 0.691519 0.479946 0.0
H_ H_ 0.596275 0.87059 0.206426 0.0
H_ H_ 0.532626 0.854565 0.191519 0.0
H_ H_ 0.54646 0.936222 0.200736 0.0
H_ H_ 0.562328 0.929018 0.148526 0.0
H_ H_ 0.510321 0.895584 0.153455 0.0
H_ H_ 0.616272 0.700508 0.330431 0.0
H_ H_ 0.526955 0.828229 0.267559 0.0
H_ H_ 0.56469 0.713989 0.300296 0.0
H_ H_ 0.525094 0.691471 0.229996 0.0
H_ H_ 0.556766 0.870681 0.456493 0.0
H_ H_ 0.608317 0.85455 0.441494 0.0
H_ H_ 0.655793 0.936173 0.45068 0.0
H_ H_ 0.634481 0.92901 0.398505 0.0
H_ H_ 0.661367 0.895512 0.403356 0.0
H_ H_ 0.659013 0.700527 0.0805278 0.0
H_ H_ 0.655666 0.83855 0.482381 0.0
H_ H_ 0.529391 0.952545 0.449826 0.0
H_ H_ 0.506593 0.975148 0.0200538 0.0
H_ H_ 0.653725 0.796077 0.293574 0.0
H_ H_ 0.717374 0.812101 0.308481 0.0
H_ H_ 0.70354 0.730445 0.299264 0.0
H_ H_ 0.687672 0.737649 0.351474 0.0
H_ H_ 0.739679 0.771083 0.346545 0.0
H_ H_ 0.633728 0.966159 0.169569 0.0
C_ C_ 0.71425 0.863124 0.226105 0.0
C_ C_ 0.502337 0.921982 0.297988 0.0
C_ C_ 0.726494 0.908064 0.256874 0.0
C_ C_ 0.690599 0.926958 0.208553 0.0
C_ C_ 0.688232 0.850247 0.188686 0.0
C_ C_ 0.670958 0.829125 0.121274 0.0
C_ C_ 0.675303 0.880865 0.180927 0.0
C_ C_ 0.714628 0.94006 0.247612 0.0
C_ C_ 0.649623 0.794298 0.0778759 0.0
C_ C_ 0.609671 0.756081 0.0815868 0.0
C_ C_ 0.566958 0.803491 0.0239115 0.0
C_ C_ 0.560847 0.744642 0.452007 0.0
C_ C_ 0.54544 0.758583 0.493117 0.0
C_ C_ 0.745284 0.739794 0.041378 0.0
C_ C_ 0.550596 0.816409 0.0613173 0.0
C_ C_ 0.549092 0.837537 0.128723 0.0
C_ C_ 0.514631 0.785872 0.0690396 0.0
C_ C_ 0.509514 0.726647 0.502343 0.0
C_ C_ 0.553929 0.872366 0.172137 0.0
C_ C_ 0.542678 0.910621 0.168461 0.0
C_ C_ 0.53575 0.803543 0.273895 0.0
C_ C_ 0.747663 0.744684 0.202012 0.0
C_ C_ 0.523506 0.758602 0.243126 0.0
C_ C_ 0.559401 0.739708 0.291447 0.0
C_ C_ 0.561768 0.81642 0.311314 0.0
C_ C_ 0.579042 0.837541 0.378726 0.0
C_ C_ 0.574697 0.785802 0.319073 0.0
C_ C_ 0.535372 0.726607 0.252388 0.0
C_ C_ 0.600377 0.872368 0.422124 0.0
C_ C_ 0.640329 0.910586 0.418413 0.0
C_ C_ 0.683042 0.863176 0.476088 0.0
C_ C_ 0.689153 0.922024 0.0479926 0.0
C_ C_ 0.70456 0.908084 0.0068833 0.0
C_ C_ 0.504716 0.926872 0.458622 0.0
C_ C_ 0.699404 0.850258 0.438683 0.0
C_ C_ 0.700908 0.82913 0.371277 0.0
C_ C_ 0.735369 0.880795 0.43096 0.0
C_ C_ 0.740486 0.94002 0.997657 0.0
C_ C_ 0.696071 0.794301 0.327863 0.0
C_ C_ 0.707322 0.756046 0.331539 0.0
N_ N_ 0.686382 0.817799 0.151215 0.0
N_ N_ 0.664247 0.86778 0.138591 0.0
N_ N_ 0.573091 0.848789 0.0988134 0.0
N_ N_ 0.513328 0.79898 0.111365 0.0
N_ N_ 0.563618 0.848868 0.348785 0.0
N_ N_ 0.585753 0.798886 0.361409 0.0
N_ N_ 0.676909 0.817878 0.401187 0.0
N_ N_ 0.736672 0.867686 0.388635 0.0
O_ O_ 0.51022 0.961285 0.326817 0.0
O_ O_ 0.573257 0.956406 0.39321 0.0
O_ O_ 0.516775 0.894731 0.303733 0.0
O_ O_ 0.675193 0.774503 0.0573651 0.0
O_ O_ 0.539241 0.70535 0.423174 0.0
O_ O_ 0.605963 0.710259 0.356775 0.0
O_ O_ 0.595745 0.771859 0.446274 0.0
O_ O_ 0.594353 0.892112 0.192614 0.0
O_ O_ 0.73978 0.705382 0.173183 0.0
O_ O_ 0.676743 0.71026 0.10679 0.0
O_ O_ 0.733225 0.771936 0.196267 0.0
O_ O_ 0.574807 0.892164 0.442635 0.0
O_ O_ 0.710759 0.961317 0.0768263 0.0
O_ O_ 0.644037 0.956408 0.143225 0.0
O_ O_ 0.654255 0.894808 0.0537256 0.0
O_ O_ 0.655647 0.774555 0.307386 0.0
Zn Zn 0.534879 0.890498 0.859702 0.0
Zn Zn 0.616967 0.776151 0.890299 0.0
Zn Zn 0.715121 0.776168 0.640298 0.0
Zn Zn 0.633033 0.890516 0.609701 0.0
Zn Zn 0.558437 0.999994 0.874991 0.0
Zn Zn 0.691563 6.1058e-06 0.625009 0.0
H_ H_ 0.723045 0.838438 0.732441 0.0
H_ H_ 0.68531 0.952678 0.699704 0.0
H_ H_ 0.724906 0.975195 0.770004 0.0
H_ H_ 0.693234 0.795985 0.543507 0.0
H_ H_ 0.641683 0.812117 0.558506 0.0
H_ H_ 0.594207 0.730494 0.54932 0.0
H_ H_ 0.615519 0.737656 0.601495 0.0
H_ H_ 0.588633 0.771155 0.596644 0.0
H_ H_ 0.590987 0.96614 0.919472 0.0
H_ H_ 0.594334 0.828117 0.517619 0.0
H_ H_ 0.720609 0.714121 0.550174 0.0
H_ H_ 0.743407 0.691519 0.979946 0.0
H_ H_ 0.596275 0.87059 0.706426 0.0
H_ H_ 0.532626 0.854565 0.691519 0.0
H_ H_ 0.54646 0.936222 0.700736 0.0
H_ H_ 0.562328 0.929018 0.648526 0.0
H_ H_ 0.510321 0.895584 0.653455 0.0
H_ H_ 0.616272 0.700508 0.830431 0.0
H_ H_ 0.526955 0.828229 0.767559 0.0
H_ H_ 0.56469 0.713989 0.800296 0.0
H_ H_ 0.525094 0.691471 0.729996 0.0
H_ H_ 0.556766 0.870681 0.956493 0.0
H_ H_ 0.608317 0.85455 0.941494 0.0
H_ H_ 0.655793 0.936173 0.95068 0.0
H_ H_ 0.634481 0.92901 0.898505 0.0
H_ H_ 0.661367 0.895512 0.903356 0.0
H_ H_ 0.659013 0.700527 0.580528 0.0
H_ H_ 0.655666 0.83855 0.982381 0.0
H_ H_ 0.529391 0.952545 0.949826 0.0
H_ H_ 0.506593 0.975148 0.520054 0.0
H_ H_ 0.653725 0.796077 0.793574 0.0
H_ H_ 0.717374 0.812101 0.808481 0.0
H_ H_ 0.70354 0.730445 0.799264 0.0
H_ H_ 0.687672 0.737649 0.851474 0.0
H_ H_ 0.739679 0.771083 0.846545 0.0
H_ H_ 0.633728 0.966159 0.669569 0.0
C_ C_ 0.71425 0.863123 0.726105 0.0
C_ C_ 0.502337 0.921982 0.797988 0.0
C_ C_ 0.726494 0.908064 0.756874 0.0
C_ C_ 0.690599 0.926958 0.708553 0.0
C_ C_ 0.688232 0.850247 0.688686 0.0
C_ C_ 0.670958 0.829125 0.621274 0.0
C_ C_ 0.675303 0.880865 0.680927 0.0
C_ C_ 0.714628 0.94006 0.747612 0.0
C_ C_ 0.649623 0.794298 0.577876 0.0
C_ C_ 0.609671 0.756081 0.581587 0.0
C_ C_ 0.566958 0.803491 0.523912 0.0
C_ C_ 0.560847 0.744642 0.952007 0.0
C_ C_ 0.54544 0.758583 0.993117 0.0
C_ C_ 0.745284 0.739794 0.541378 0.0
C_ C_ 0.550596 0.816409 0.561317 0.0
C_ C_ 0.549092 0.837537 0.628723 0.0
C_ C_ 0.514631 0.785872 0.56904 0.0
C_ C_ 0.509514 0.726647 0.00234335 0.0
C_ C_ 0.553929 0.872366 0.672137 0.0
C_ C_ 0.542678 0.910621 0.668461 0.0
C_ C_ 0.53575 0.803543 0.773895 0.0
C_ C_ 0.747663 0.744685 0.702012 0.0
C_ C_ 0.523506 0.758602 0.743126 0.0
C_ C_ 0.559401 0.739708 0.791447 0.0
C_ C_ 0.561768 0.81642 0.811314 0.0
C_ C_ 0.579042 0.837541 0.878726 0.0
C_ C_ 0.574697 0.785802 0.819073 0.0
C_ C_ 0.535372 0.726607 0.752388 0.0
C_ C_ 0.600377 0.872368 0.922124 0.0
C_ C_ 0.640329 0.910586 0.918413 0.0
C_ C_ 0.683042 0.863176 0.976088 0.0
C_ C_ 0.689153 0.922024 0.547993 0.0
C_ C_ 0.70456 0.908084 0.506883 0.0
C_ C_ 0.504716 0.926872 0.958622 0.0
C_ C_ 0.699404 0.850258 0.938683 0.0
C_ C_ 0.700908 0.82913 0.871277 0.0
C_ C_ 0.735369 0.880795 0.93096 0.0
C_ C_ 0.740486 0.94002 0.497657 0.0
C_ C_ 0.696071 0.794301 0.827863 0.0
C_ C_ 0.707322 0.756046 0.831539 0.0
N_ N_ 0.686382 0.817799 0.651215 0.0
N_ N_ 0.664247 0.86778 0.638591 0.0
N_ N_ 0.573091 0.848789 0.598813 0.0
N_ N_ 0.513328 0.79898 0.611365 0.0
N_ N_ 0.563618 0.848868 0.848785 0.0
N_ N_ 0.585753 0.798886 0.861409 0.0
N_ N_ 0.676909 0.817878 0.901187 0.0
N_ N_ 0.736672 0.867686 0.888635 0.0
O_ O_ 0.51022 0.961285 0.826817 0.0
O_ O_ 0.573257 0.956406 0.89321 0.0
O_ O_ 0.516775 0.894731 0.803733 0.0
O_ O_ 0.675193 0.774503 0.557365 0.0
O_ O_ 0.539241 0.70535 0.923174 0.0
O_ O_ 0.605963 0.710259 0.856775 0.0
O_ O_ 0.595745 0.771859 0.946274 0.0
O_ O_ 0.594353 0.892112 0.692614 0.0
O_ O_ 0.73978 0.705382 0.673183 0.0
O_ O_ 0.676743 0.71026 0.60679 0.0
O_ O_ 0.733225 0.771936 0.696267 0.0
O_ O_ 0.574807 0.892164 0.942635 0.0
O_ O_ 0.710759 0.961317 0.576826 0.0
O_ O_ 0.644037 0.956408 0.643225 0.0
O_ O_ 0.654255 0.894808 0.553726 0.0
O_ O_ 0.655647 0.774555 0.807386 0.0
Zn Zn 0.784879 0.223832 0.359702 0.0
Zn Zn 0.866967 0.109484 0.390299 0.0
Zn Zn 0.965121 0.109502 0.140298 0.0
Zn Zn 0.883033 0.223849 0.109701 0.0
Zn Zn 0.808437 0.333327 0.374991 0.0
Zn Zn 0.941563 0.333339 0.125009 0.0
H_ H_ 0.973045 0.171771 0.232441 0.0
H_ H_ 0.93531 0.286011 0.199704 0.0
H_ H_ 0.974906 0.308529 0.270004 0.0
H_ H_ 0.943234 0.129319 0.0435068 0.0
H_ H_ 0.891683 0.14545 0.0585061 0.0
H_ H_ 0.844207 0.0638274 0.04932 0.0
H_ H_ 0.865519 0.0709896 0.101495 0.0
H_ H_ 0.838633 0.104488 0.0966441 0.0
H_ H_ 0.840987 0.299473 0.419472 0.0
H_ H_ 0.844334 0.16145 0.0176191 0.0
H_ H_ 0.970609 0.0474546 0.0501739 0.0
H_ H_ 0.993407 0.0248519 0.479946 0.0
H_ H_ 0.846275 0.203923 0.206426 0.0
H_ H_ 0.782626 0.187899 0.191519 0.0
H_ H_ 0.79646 0.269555 0.200736 0.0
H_ H_ 0.812328 0.262351 0.148526 0.0
H_ H_ 0.760321 0.228917 0.153455 0.0
H_ H_ 0.866272 0.0338412 0.330431 0.0
H_ H_ 0.776955 0.161562 0.267559 0.0
H_ H_ 0.81469 0.0473223 0.300296 0.0
H_ H_ 0.775095 0.0248047 0.229996 0.0
H_ H_ 0.806766 0.204015 0.456493 0.0
H_ H_ 0.858317 0.187883 0.441494 0.0
H_ H_ 0.905793 0.269506 0.45068 0.0
H_ H_ 0.884481 0.262344 0.398505 0.0
H_ H_ 0.911367 0.228845 0.403356 0.0
H_ H_ 0.909013 0.0338604 0.0805278 0.0
H_ H_ 0.905666 0.171883 0.482381 0.0
H_ H_ 0.779391 0.285879 0.449826 0.0
H_ H_ 0.756593 0.308481 0.0200538 0.0
H_ H_ 0.903725 0.12941 0.293574 0.0
H_ H_ 0.967374 0.145435 0.308481 0.0
H_ H_ 0.95354 0.0637781 0.299264 0.0
H_ H_ 0.937672 0.0709824 0.351474 0.0
H_ H_ 0.989679 0.104416 0.346545 0.0
H_ H_ 0.883728 0.299492 0.169569 0.0
C_ C_ 0.96425 0.196457 0.226105 0.0
C_ C_ 0.752337 0.255316 0.297988 0.0
C_ C_ 0.976494 0.241398 0.256874 0.0
C_ C_ 0.940599 0.260292 0.208553 0.0
C_ C_ 0.938232 0.18358 0.188686 0.0
C_ C_ 0.920958 0.162459 0.121274 0.0
C_ C_ 0.925303 0.214198 0.180927 0.0
C_ C_ 0.964628 0.273393 0.247612 0.0
C_ C_ 0.899623 0.127632 0.0778759 0.0
C_ C_ 0.859671 0.089414 0.0815868 0.0
C_ C_ 0.816958 0.136824 0.0239115 0.0
C_ C_ 0.810847 0.0779757 0.452007 0.0
C_ C_ 0.79544 0.0919161 0.493117 0.0
C_ C_ 0.995284 0.0731278 0.041378 0.0
C_ C_ 0.800596 0.149742 0.0613173 0.0
C_ C_ 0.799092 0.17087 0.128723 0.0
C_ C_ 0.764631 0.119205 0.0690396 0.0
C_ C_ 0.759514 0.0599805 0.502343 0.0
C_ C_ 0.803929 0.205699 0.172137 0.0
C_ C_ 0.792678 0.243954 0.168461 0.0
C_ C_ 0.78575 0.136876 0.273895 0.0
C_ C_ 0.997663 0.0780178 0.202012 0.0
C_ C_ 0.773506 0.0919356 0.243126 0.0
C_ C_ 0.809401 0.0730416 0.291447 0.0
C_ C_ 0.811768 0.149753 0.311314 0.0
C_ C_ 0.829042 0.170875 0.378726 0.0
C_ C_ 0.824697 0.119135 0.319073 0.0
C_ C_ 0.785372 0.0599403 0.252388 0.0
C_ C_ 0.850377 0.205702 0.422124 0.0
C_ C_ 0.890329 0.243919 0.418413 0.0
C_ C_ 0.933042 0.196509 0.476088 0.0
C_ C_ 0.939153 0.255358 0.0479926 0.0
C_ C_ 0.95456 0.241417 0.0068833 0.0
C_ C_ 0.754716 0.260206 0.458622 0.0
C_ C_ 0.949404 0.183591 0.438683 0.0
C_ C_ 0.950908 0.162463 0.371277 0.0
C_ C_ 0.985369 0.214128 0.43096 0.0
C_ C_ 0.990486 0.273353 0.997657 0.0
C_ C_ 0.946071 0.127634 0.327863 0.0
C_ C_ 0.957322 0.0893793 0.331539 0.0
N_ N_ 0.936382 0.151132 0.151215 0.0
N_ N_ 0.914247 0.201114 0.138591 0.0
N_ N_ 0.823091 0.182122 0.0988135 0.0
N_ N_ 0.763328 0.132314 0.111365 0.0
N_ N_ 0.813618 0.182201 0.348785 0.0
N_ N_ 0.835753 0.13222 0.361409 0.0
N_ N_ 0.926909 0.151211 0.401187 0.0
N_ N_ 0.986672 0.20102 0.388635 0.0
O_ O_ 0.76022 0.294618 0.326817 0.0
O_ O_ 0.823257 0.28974 0.39321 0.0
O_ O_ 0.766775 0.228064 0.303733 0.0
O_ O_ 0.925193 0.107836 0.0573651 0.0
O_ O_ 0.789241 0.0386835 0.423174 0.0
O_ O_ 0.855963 0.0435925 0.356775 0.0
O_ O_ 0.845745 0.105192 0.446274 0.0
O_ O_ 0.844353 0.225445 0.192614 0.0
O_ O_ 0.98978 0.0387153 0.173183 0.0
O_ O_ 0.926743 0.0435937 0.10679 0.0
O_ O_ 0.983225 0.105269 0.196267 0.0
O_ O_ 0.824807 0.225497 0.442635 0.0
O_ O_ 0.960759 0.29465 0.0768263 0.0
O_ O_ 0.894037 0.289741 0.143225 0.0
O_ O_ 0.904255 0.228141 0.0537256 0.0
O_ O_ 0.905647 0.107888 0.307386 0.0
Zn Zn 0.784879 0.223832 0.859702 0.0
Zn Zn 0.866967 0.109484 0.890299 0.0
Zn Zn 0.965121 0.109502 0.640298 0.0
Zn Zn 0.883033 0.223849 0.609701 0.0
Zn Zn 0.808437 0.333327 0.874991 0.0
Zn Zn 0.941563 0.333339 0.625009 0.0
H_ H_ 0.973045 0.171771 0.732441 0.0
H_ H_ 0.93531 0.286011 0.699704 0.0
H_ H_ 0.974906 0.308529 0.770004 0.0
H_ H_ 0.943234 0.129319 0.543507 0.0
H_ H_ 0.891683 0.14545 0.558506 0.0
H_ H_ 0.844207 0.0638274 0.54932 0.0
H_ H_ 0.865519 0.0709896 0.601495 0.0
H_ H_ 0.838633 0.104488 0.596644 0.0
H_ H_ 0.840987 0.299473 0.919472 0.0
H_ H_ 0.844334 0.16145 0.517619 0.0
H_ H_ 0.970609 0.0474546 0.550174 0.0
H_ H_ 0.993407 0.0248519 0.979946 0.0
H_ H_ 0.846275 0.203923 0.706426 0.0
H_ H_ 0.782626 0.187899 0.691519 0.0
H_ H_ 0.79646 0.269555 0.700736 0.0
H_ H_ 0.812328 0.262351 0.648526 0.0
H_ H_ 0.760321 0.228917 0.653455 0.0
H_ H_ 0.866272 0.0338412 0.830431 0.0
H_ H_ 0.776955 0.161562 0.767559 0.0
H_ H_ 0.81469 0.0473223 0.800296 0.0
H_ H_ 0.775095 0.0248047 0.729996 0.0
H_ H_ 0.806766 0.204015 0.956493 0.0
H_ H_ 0.858317 0.187883 0.941494 0.0
H_ H_ 0.905793 0.269506 0.95068 0.0
H_ H_ 0.884481 0.262344 0.898505 0.0
H_ H_ 0.911367 0.228845 0.903356 0.0
H_ H_ 0.909013 0.0338604 0.580528 0.0
H_ H_ 0.905666 0.171883 0.982381 0.0
H_ H_ 0.779391 0.285879 0.949826 0.0
H_ H_ 0.756593 0.308481 0.520054 0.0
H_ H_ 0.903725 0.12941 0.793574 0.0
H_ H_ 0.967374 0.145435 0.808481 0.0
H_ H_ 0.95354 0.0637781 0.799264 0.0
H_ H_ 0.937672 0.0709824 0.851474 0.0
H_ H_ 0.989679 0.104416 0.846545 0.0
H_ H_ 0.883728 0.299492 0.669569 0.0
C_ C_ 0.96425 0.196457 0.726105 0.0
C_ C_ 0.752337 0.255315 0.797988 0.0
C_ C_ 0.976494 0.241398 0.756874 0.0
C_ C_ 0.940599 0.260292 0.708553 0.0
C_ C_ 0.938232 0.18358 0.688686 0.0
C_ C_ 0.920958 0.162459 0.621274 0.0
C_ C_ 0.925303 0.214198 0.680927 0.0
C_ C_ 0.964628 0.273393 0.747612 0.0
C_ C_ 0.899623 0.127632 0.577876 0.0
C_ C_ 0.859671 0.089414 0.581587 0.0
C_ C_ 0.816958 0.136824 0.523912 0.0
C_ C_ 0.810847 0.0779757 0.952007 0.0
C_ C_ 0.79544 0.0919161 0.993117 0.0
C_ C_ 0.995284 0.0731278 0.541378 0.0
C_ C_ 0.800596 0.149742 0.561317 0.0
C_ C_ 0.799092 0.17087 0.628723 0.0
C_ C_ 0.764631 0.119205 0.56904 0.0
C_ C_ 0.759514 0.0599805 0.00234335 0.0
C_ C_ 0.803929 0.205699 0.672137 0.0
C_ C_ 0.792678 0.243954 0.668461 0.0
C_ C_ 0.78575 0.136876 0.773895 0.0
C_ C_ 0.997663 0.0780178 0.702012 0.0
C_ C_ 0.773506 0.0919356 0.743126 0.0
C_ C_ 0.809401 0.0730416 0.791447 0.0
C_ C_ 0.811768 0.149753 0.811314 0.0
C_ C_ 0.829042 0.170875 0.878726 0.0
C_ C_ 0.824697 0.119135 0.819073 0.0
C_ C_ 0.785372 0.0599403 0.752388 0.0
C_ C_ 0.850377 0.205702 0.922124 0.0
C_ C_ 0.890329 0.243919 0.918413 0.0
C_ C_ 0.933042 0.196509 0.976088 0.0
C_ C_ 0.939153 0.255358 0.547993 0.0
C_ C_ 0.95456 0.241417 0.506883 0.0
C_ C_ 0.754716 0.260206 0.958622 0.0
C_ C_ 0.949404 0.183591 0.938683 0.0
C_ C_ 0.950908 0.162463 0.871277 0.0
C_ C_ 0.985369 0.214128 0.93096 0.0
C_ C_ 0.990486 0.273353 0.497657 0.0
C_ C_ 0.946071 0.127634 0.827863 0.0
C_ C_ 0.957322 0.0893793 0.831539 0.0
N_ N_ 0.936382 0.151132 0.651215 0.0
N_ N_ 0.914247 0.201114 0.638591 0.0
N_ N_ 0.823091 0.182122 0.598813 0.0
N_ N_ 0.763328 0.132314 0.611365 0.0
N_ N_ 0.813618 0.182201 0.848785 0.0
N_ N_ 0.835753 0.13222 0.861409 0.0
N_ N_ 0.926909 0.151211 0.901187 0.0
N_ N_ 0.986672 0.20102 0.888635 0.0
O_ O_ 0.76022 0.294618 0.826817 0.0
O_ O_ 0.823257 0.28974 0.89321 0.0
O_ O_ 0.766775 0.228064 0.803733 0.0
O_ O_ 0.925193 0.107836 0.557365 0.0
O_ O_ 0.789241 0.0386834 0.923174 0.0
O_ O_ 0.855963 0.0435925 0.856775 0.0
O_ O_ 0.845745 0.105192 0.946274 0.0
O_ O_ 0.844353 0.225445 0.692614 0.0
O_ O_ 0.98978 0.0387153 0.673183 0.0
O_ O_ 0.926743 0.0435937 0.60679 0.0
O_ O_ 0.983225 0.105269 0.696267 0.0
O_ O_ 0.824807 0.225497 0.942635 0.0
O_ O_ 0.960759 0.29465 0.576826 0.0
O_ O_ 0.894037 0.289741 0.643225 0.0
O_ O_ 0.904255 0.228141 0.553726 0.0
O_ O_ 0.905647 0.107888 0.807386 0.0
Zn Zn 0.784879 0.557165 0.359702 0.0
Zn Zn 0.866967 0.442818 0.390299 0.0
Zn Zn 0.965121 0.442835 0.140298 0.0
Zn Zn 0.883033 0.557182 0.109701 0.0
Zn Zn 0.808437 0.666661 0.374991 0.0
Zn Zn 0.941563 0.666673 0.125009 0.0
H_ H_ 0.973045 0.505104 0.232441 0.0
H_ H_ 0.93531 0.619344 0.199704 0.0
H_ H_ 0.974906 0.641862 0.270004 0.0
H_ H_ 0.943234 0.462652 0.0435068 0.0
H_ H_ 0.891683 0.478784 0.0585061 0.0
H_ H_ 0.844207 0.397161 0.04932 0.0
H_ H_ 0.865519 0.404323 0.101495 0.0
H_ H_ 0.838633 0.437822 0.0966441 0.0
H_ H_ 0.840987 0.632806 0.419472 0.0
H_ H_ 0.844334 0.494784 0.0176191 0.0
H_ H_ 0.970609 0.380788 0.0501739 0.0
H_ H_ 0.993407 0.358185 0.479946 0.0
H_ H_ 0.846275 0.537257 0.206426 0.0
H_ H_ 0.782626 0.521232 0.191519 0.0
H_ H_ 0.79646 0.602889 0.200736 0.0
H_ H_ 0.812328 0.595684 0.148526 0.0
H_ H_ 0.760321 0.562251 0.153455 0.0
H_ H_ 0.866272 0.367175 0.330431 0.0
H_ H_ 0.776955 0.494896 0.267559 0.0
H_ H_ 0.81469 0.380656 0.300296 0.0
H_ H_ 0.775095 0.358138 0.229996 0.0
H_ H_ 0.806766 0.537348 0.456493 0.0
H_ H_ 0.858317 0.521216 0.441494 0.0
H_ H_ 0.905793 0.602839 0.45068 0.0
H_ H_ 0.884481 0.595677 0.398505 0.0
H_ H_ 0.911367 0.562178 0.403356 0.0
H_ H_ 0.909013 0.367194 0.0805278 0.0
H_ H_ 0.905666 0.505216 0.482381 0.0
H_ H_ 0.779391 0.619212 0.449826 0.0
H_ H_ 0.756593 0.641815 0.0200538 0.0
H_ H_ 0.903725 0.462743 0.293574 0.0
H_ H_ 0.967374 0.478768 0.308481 0.0
H_ H_ 0.95354 0.397111 0.299264 0.0
H_ H_ 0.937672 0.404316 0.351474 0.0
H_ H_ 0.989679 0.437749 0.346545 0.0
H_ H_ 0.883728 0.632825 0.169569 0.0
C_ C_ 0.96425 0.52979 0.226105 0.0
C_ C_ 0.752337 0.588649 0.297988 0.0
C_ C_ 0.976494 0.574731 0.256874 0.0
C_ C_ 0.940599 0.593625 0.208553 0.0
C_ C_ 0.938232 0.516914 0.188686 0.0
C_ C_ 0.920958 0.495792 0.121274 0.0
C_ C_ 0.925303 0.547532 0.180927 0.0
C_ C_ 0.964628 0.606726 0.247612 0.0
C_ C_ 0.899623 0.460965 0.0778759 0.0
C_ C_ 0.859671 0.422747 0.0815868 0.0
C_ C_ 0.816958 0.470157 0.0239115 0.0
C_ C_ 0.810847 0.411309 0.452007 0.0
C_ C_ 0.79544 0.425249 0.493117 0.0
C_ C_ 0.995284 0.406461 0.041378 0.0
C_ C_ 0.800596 0.483075 0.0613173 0.0
C_ C_ 0.799092 0.504203 0.128723 0.0
C_ C_ 0.764631 0.452538 0.0690396 0.0
C_ C_ 0.759514 0.393314 0.502343 0.0
C_ C_ 0.803929 0.539032 0.172137 0.0
C_ C_ 0.792678 0.577287 0.168461 0.0
C_ C_ 0.78575 0.47021 0.273895 0.0
C_ C_ 0.997663 0.411351 0.202012 0.0
C_ C_ 0.773506 0.425269 0.243126 0.0
C_ C_ 0.809401 0.406375 0.291447 0.0
C_ C_ 0.811768 0.483086 0.311314 0.0
C_ C_ 0.829042 0.504208 0.378726 0.0
C_ C_ 0.824697 0.452468 0.319073 0.0
C_ C_ 0.785372 0.393274 0.252388 0.0
C_ C_ 0.850377 0.539035 0.422124 0.0
C_ C_ 0.890329 0.577253 0.418413 0.0
C_ C_ 0.933042 0.529843 0.476088 0.0
C_ C_ 0.939153 0.588691 0.0479926 0.0
C_ C_ 0.95456 0.574751 0.0068833 0.0
C_ C_ 0.754716 0.593539 0.458622 0.0
C_ C_ 0.949404 0.516925 0.438683 0.0
C_ C_ 0.950908 0.495797 0.371277 0.0
C_ C_ 0.985369 0.547462 0.43096 0.0
C_ C_ 0.990486 0.606686 0.997657 0.0
C_ C_ 0.946071 0.460968 0.327863 0.0
C_ C_ 0.957322 0.422713 0.331539 0.0
N_ N_ 0.936382 0.484466 0.151215 0.0
N_ N_ 0.914247 0.534447 0.138591 0.0
N_ N_ 0.823091 0.515455 0.0988134 0.0
N_ N_ 0.763328 0.465647 0.111365 0.0
N_ N_ 0.813618 0.515534 0.348785 0.0
N_ N_ 0.835753 0.465553 0.361409 0.0
N_ N_ 0.926909 0.484545 0.401187 0.0
N_ N_ 0.986672 0.534353 0.388635 0.0
O_ O_ 0.76022 0.627951 0.326817 0.0
O_ O_ 0.823257 0.623073 0.39321 0.0
O_ O_ 0.766775 0.561398 0.303733 0.0
O_ O_ 0.925193 0.441169 0.0573651 0.0
O_ O_ 0.789241 0.372017 0.423174 0.0
O_ O_ 0.855963 0.376926 0.356775 0.0
O_ O_ 0.845745 0.438525 0.446274 0.0
O_ O_ 0.844353 0.558778 0.192614 0.0
O_ O_ 0.98978 0.372049 0.173183 0.0
O_ O_ 0.926743 0.376927 0.10679 0.0
O_ O_ 0.983225 0.438602 0.196267 0.0
O_ O_ 0.824807 0.558831 0.442635 0.0
O_ O_ 0.960759 0.627983 0.0768263 0.0
O_ O_ 0.894037 0.623074 0.143225 0.0
O_ O_ 0.904255 0.561475 0.0537256 0.0
O_ O_ 0.905647 0.441222 0.307386 0.0
Zn Zn 0.784879 0.557165 0.859702 0.0
Zn Zn 0.866967 0.442818 0.890299 0.0
Zn Zn 0.965121 0.442835 0.640298 0.0
Zn Zn 0.883033 0.557182 0.609701 0.0
Zn Zn 0.808437 0.666661 0.874991 0.0
Zn Zn 0.941563 0.666673 0.625009 0.0
H_ H_ 0.973045 0.505104 0.732441 0.0
H_ H_ 0.93531 0.619344 0.699704 0.0
H_ H_ 0.974906 0.641862 0.770004 0.0
H_ H_ 0.943234 0.462652 0.543507 0.0
H_ H_ 0.891683 0.478784 0.558506 0.0
H_ H_ 0.844207 0.397161 0.54932 0.0
H_ H_ 0.865519 0.404323 0.601495 0.0
H_ H_ 0.838633 0.437822 0.596644 0.0
H_ H_ 0.840987 0.632806 0.919472 0.0
H_ H_ 0.844334 0.494784 0.517619 0.0
H_ H_ 0.970609 0.380788 0.550174 0.0
H_ H_ 0.993407 0.358185 0.979946 0.0
H_ H_ 0.846275 0.537257 0.706426 0.0
H_ H_ 0.782626 0.521232 0.691519 0.0
H_ H_ 0.79646 0.602889 0.700736 0.0
H_ H_ 0.812328 0.595684 0.648526 0.0
H_ H_ 0.760321 0.562251 0.653455 0.0
H_ H_ 0.866272 0.367175 0.830431 0.0
H_ H_ 0.776955 0.494896 0.767559 0.0
H_ H_ 0.81469 0.380656 0.800296 0.0
H_ H_ 0.775095 0.358138 0.729996 0.0
H_ H_ 0.806766 0.537348 0.956493 0.0
H_ H_ 0.858317 0.521216 0.941494 0.0
H_ H_ 0.905793 0.602839 0.95068 0.0
H_ H_ 0.884481 0.595677 0.898505 0.0
H_ H_ 0.911367 0.562178 0.903356 0.0
H_ H_ 0.909013 0.367194 0.580528 0.0
H_ H_ 0.905666 0.505216 0.982381 0.0
H_ H_ 0.779391 0.619212 0.949826 0.0
H_ H_ 0.756593 0.641815 0.520054 0.0
H_ H_ 0.903725 0.462743 0.793574 0.0
H_ H_ 0.967374 0.478768 0.808481 0.0
H_ H_ 0.95354 0.397111 0.799264 0.0
H_ H_ 0.937672 0.404316 0.851474 0.0
H_ H_ 0.989679 0.437749 0.846545 0.0
H_ H_ 0.883728 0.632825 0.669569 0.0
C_ C_ 0.96425 0.52979 0.726105 0.0
C_ C_ 0.752337 0.588649 0.797988 0.0
C_ C_ 0.976494 0.574731 0.756874 0.0
C_ C_ 0.940599 0.593625 0.708553 0.0
C_ C_ 0.938232 0.516914 0.688686 0.0
C_ C_ 0.920958 0.495792 0.621274 0.0
C_ C_ 0.925303 0.547532 0.680927 0.0
C_ C_ 0.964628 0.606726 0.747612 0.0
C_ C_ 0.899623 0.460965 0.577876 0.0
C_ C_ 0.859671 0.422747 0.581587 0.0
C_ C_ 0.816958 0.470157 0.523912 0.0
C_ C_ 0.810847 0.411309 0.952007 0.0
C_ C_ 0.79544 0.425249 0.993117 0.0
C_ C_ 0.995284 0.406461 0.541378 0.0
C_ C_ 0.800596 0.483075 0.561317 0.0
C_ C_ 0.799092 0.504203 0.628723 0.0
C_ C_ 0.764631 0.452538 0.56904 0.0
C_ C_ 0.759514 0.393314 0.00234335 0.0
C_ C_ 0.803929 0.539032 0.672137 0.0
C_ C_ 0.792678 0.577287 0.668461 0.0
C_ C_ 0.78575 0.47021 0.773895 0.0
C_ C_ 0.997663 0.411351 0.702012 0.0
C_ C_ 0.773506 0.425269 0.743126 0.0
C_ C_ 0.809401 0.406375 0.791447 0.0
C_ C_ 0.811768 0.483086 0.811314 0.0
C_ C_ 0.829042 0.504208 0.878726 0.0
C_ C_ 0.824697 0.452468 0.819073 0.0
C_ C_ 0.785372 0.393274 0.752388 0.0
C_ C_ 0.850377 0.539035 0.922124 0.0
C_ C_ 0.890329 0.577253 0.918413 0.0
C_ C_ 0.933042 0.529843 0.976088 0.0
C_ C_ 0.939153 0.588691 0.547993 0.0
C_ C_ 0.95456 0.574751 0.506883 0.0
C_ C_ 0.754716 0.593539 0.958622 0.0
C_ C_ 0.949404 0.516925 0.938683 0.0
C_ C_ 0.950908 0.495797 0.871277 0.0
C_ C_ 0.985369 0.547462 0.93096 0.0
C_ C_ 0.990486 0.606686 0.497657 0.0
C_ C_ 0.946071 0.460968 0.827863 0.0
C_ C_ 0.957322 0.422713 0.831539 0.0
N_ N_ 0.936382 0.484466 0.651215 0.0
N_ N_ 0.914247 0.534447 0.638591 0.0
N_ N_ 0.823091 0.515455 0.598813 0.0
N_ N_ 0.763328 0.465647 0.611365 0.0
N_ N_ 0.813618 0.515534 0.848785 0.0
N_ N_ 0.835753 0.465553 0.861409 0.0
N_ N_ 0.926909 0.484545 0.901187 0.0
N_ N_ 0.986672 0.534353 0.888635 0.0
O_ O_ 0.76022 0.627951 0.826817 0.0
O_ O_ 0.823257 0.623073 0.89321 0.0
O_ O_ 0.766775 0.561398 0.803733 0.0
O_ O_ 0.925193 0.441169 0.557365 0.0
O_ O_ 0.789241 0.372017 0.923174 0.0
O_ O_ 0.855963 0.376926 0.856775 0.0
O_ O_ 0.845745 0.438525 0.946274 0.0
O_ O_ 0.844353 0.558778 0.692614 0.0
O_ O_ 0.98978 0.372049 0.673183 0.0
O_ O_ 0.926743 0.376927 0.60679 0.0
O_ O_ 0.983225 0.438602 0.696267 0.0
O_ O_ 0.824807 0.558831 0.942635 0.0
O_ O_ 0.960759 0.627983 0.576826 0.0
O_ O_ 0.894037 0.623074 0.643225 0.0
O_ O_ 0.904255 0.561475 0.553726 0.0
O_ O_ 0.905647 0.441222 0.807386 0.0
Zn Zn 0.784879 0.890498 0.359702 0.0
Zn Zn 0.866967 0.776151 0.390299 0.0
Zn Zn 0.965121 0.776168 0.140298 0.0
Zn Zn 0.883033 0.890516 0.109701 0.0
Zn Zn 0.808437 0.999994 0.374991 0.0
Zn Zn 0.941563 6.10563e-06 0.125009 0.0
H_ H_ 0.973045 0.838438 0.232441 0.0
H_ H_ 0.93531 0.952678 0.199704 0.0
H_ H_ 0.974905 0.975195 0.270003 0.0
H_ H_ 0.943234 0.795985 0.0435068 0.0
H_ H_ 0.891683 0.812117 0.0585061 0.0
H_ H_ 0.844207 0.730494 0.04932 0.0
H_ H_ 0.865519 0.737656 0.101495 0.0
H_ H_ 0.838633 0.771155 0.0966441 0.0
H_ H_ 0.840987 0.96614 0.419472 0.0
H_ H_ 0.844334 0.828117 0.0176191 0.0
H_ H_ 0.970609 0.714121 0.0501739 0.0
H_ H_ 0.993407 0.691519 0.479946 0.0
H_ H_ 0.846275 0.87059 0.206426 0.0
H_ H_ 0.782626 0.854565 0.191519 0.0
H_ H_ 0.79646 0.936222 0.200736 0.0
H_ H_ 0.812328 0.929018 0.148526 0.0
H_ H_ 0.760321 0.895584 0.153455 0.0
H_ H_ 0.866272 0.700508 0.330431 0.0
H_ H_ 0.776955 0.828229 0.267559 0.0
H_ H_ 0.81469 0.713989 0.300296 0.0
H_ H_ 0.775094 0.691471 0.229996 0.0
H_ H_ 0.806766 0.870681 0.456493 0.0
H_ H_ 0.858317 0.85455 0.441494 0.0
H_ H_ 0.905793 0.936173 0.45068 0.0
H_ H_ 0.884481 0.92901 0.398505 0.0
H_ H_ 0.911367 0.895512 0.403356 0.0
H_ H_ 0.909013 0.700527 0.0805278 0.0
H_ H_ 0.905666 0.83855 0.482381 0.0
H_ H_ 0.779391 0.952545 0.449826 0.0
H_ H_ 0.756593 0.975148 0.0200538 0.0
H_ H_ 0.903725 0.796077 0.293574 0.0
H_ H_ 0.967374 0.812101 0.308481 0.0
H_ H_ 0.95354 0.730445 0.299264 0.0
H_ H_ 0.937672 0.737649 0.351474 0.0
H_ H_ 0.989679 0.771083 0.346545 0.0
H_ H_ 0.883728 0.966159 0.169569 0.0
C_ C_ 0.96425 0.863124 0.226105 0.0
C_ C_ 0.752337 0.921982 0.297988 0.0
C_ C_ 0.976494 0.908064 0.256874 0.0
C_ C_ 0.940599 0.926958 0.208553 0.0
C_ C_ 0.938232 0.850247 0.188686 0.0
C_ C_ 0.920958 0.829125 0.121274 0.0
C_ C_ 0.925303 0.880865 0.180927 0.0
C_ C_ 0.964628 0.94006 0.247612 0.0
C_ C_ 0.899623 0.794298 0.0778759 0.0
C_ C_ 0.859671 0.756081 0.0815868 0.0
C_ C_ 0.816958 0.803491 0.0239115 0.0
C_ C_ 0.810847 0.744642 0.452007 0.0
C_ C_ 0.79544 0.758583 0.493117 0.0
C_ C_ 0.995284 0.739794 0.041378 0.0
C_ C_ 0.800596 0.816409 0.0613173 0.0
C_ C_ 0.799092 0.837537 0.128723 0.0
C_ C_ 0.764631 0.785872 0.0690396 0.0
C_ C_ 0.759514 0.726647 0.502343 0.0
C_ C_ 0.803929 0.872366 0.172137 0.0
C_ C_ 0.792678 0.910621 0.168461 0.0
C_ C_ 0.78575 0.803543 0.273895 0.0
C_ C_ 0.997663 0.744684 0.202012 0.0
C_ C_ 0.773506 0.758602 0.243126 0.0
C_ C_ 0.809401 0.739708 0.291447 0.0
C_ C_ 0.811768 0.81642 0.311314 0.0
C_ C_ 0.829042 0.837541 0.378726 0.0
C_ C_ 0.824697 0.785802 0.319073 0.0
C_ C_ 0.785372 0.726607 0.252388 0.0
C_ C_ 0.850377 0.872368 0.422124 0.0
C_ C_ 0.890329 0.910586 0.418413 0.0
C_ C_ 0.933042 0.863176 0.476088 0.0
C_ C_ 0.939153 0.922024 0.0479926 0.0
C_ C_ 0.95456 0.908084 0.0068833 0.0
C_ C_ 0.754716 0.926872 0.458622 0.0
C_ C_ 0.949404 0.850258 0.438683 0.0
C_ C_ 0.950908 0.82913 0.371277 0.0
C_ C_ 0.985369 0.880795 0.43096 0.0
C_ C_ 0.990486 0.94002 0.997657 0.0
C_ C_ 0.946071 0.794301 0.327863 0.0
C_ C_ 0.957322 0.756046 0.331539 0.0
N_ N_ 0.936382 0.817799 0.151215 0.0
N_ N_ 0.914247 0.86778 0.138591 0.0
N_ N_ 0.823091 0.848789 0.0988134 0.0
N_ N_ 0.763328 0.79898 0.111365 0.0
N_ N_ 0.813618 0.848868 0.348785 0.0
N_ N_ 0.835753 0.798886 0.361409 0.0
N_ N_ 0.926909 0.817878 0.401187 0.0
N_ N_ 0.986672 0.867686 0.388635 0.0
O_ O_ 0.76022 0.961285 0.326817 0.0
O_ O_ 0.823257 0.956406 0.39321 0.0
O_ O_ 0.766775 0.894731 0.303733 0.0
O_ O_ 0.925193 0.774503 0.0573651 0.0
O_ O_ 0.789241 0.70535 0.423174 0.0
O_ O_ 0.855963 0.710259 0.356775 0.0
O_ O_ 0.845745 0.771859 0.446274 0.0
O_ O_ 0.844353 0.892112 0.192614 0.0
O_ O_ 0.98978 0.705382 0.173183 0.0
O_ O_ 0.926743 0.71026 0.10679 0.0
O_ O_ 0.983225 0.771936 0.196267 0.0
O_ O_ 0.824807 0.892164 0.442635 0.0
O_ O_ 0.960759 0.961317 0.0768263 0.0
O_ O_ 0.894037 0.956408 0.143225 0.0
O_ O_ 0.904255 0.894808 0.0537256 0.0
O_ O_ 0.905647 0.774555 0.307386 0.0
Zn Zn 0.784879 0.890498 0.859702 0.0
Zn Zn 0.866967 0.776151 0.890299 0.0
Zn Zn 0.965121 0.776168 0.640298 0.0
Zn Zn 0.883033 0.890516 0.609701 0.0
Zn Zn 0.808437 0.999994 0.874991 0.0
Zn Zn 0.941563 6.1058e-06 0.625009 0.0
H_ H_ 0.973045 0.838438 0.732441 0.0
H_ H_ 0.93531 0.952678 0.699704 0.0
H_ H_ 0.974906 0.975195 0.770004 0.0
H_ H_ 0.943234 0.795985 0.543507 0.0
H_ H_ 0.891683 0.812117 0.558506 0.0
H_ H_ 0.844207 0.730494 0.54932 0.0
H_ H_ 0.865519 0.737656 0.601495 0.0
H_ H_ 0.838633 0.771155 0.596644 0.0
H_ H_ 0.840987 0.96614 0.919472 0.0
H_ H_ 0.844334 0.828117 0.517619 0.0
H_ H_ 0.970609 0.714121 0.550174 0.0
H_ H_ 0.993407 0.691519 0.979946 0.0
H_ H_ 0.846275 0.87059 0.706426 0.0
H_ H_ 0.782626 0.854565 0.691519 0.0
H_ H_ 0.79646 0.936222 0.700736 0.0
H_ H_ 0.812328 0.929018 0.648526 0.0
H_ H_ 0.760321 0.895584 0.653455 0.0
H_ H_ 0.866272 0.700508 0.830431 0.0
H_ H_ 0.776955 0.828229 0.767559 0.0
H_ H_ 0.81469 0.713989 0.800296 0.0
H_ H_ 0.775094 0.691471 0.729996 0.0
H_ H_ 0.806766 0.870681 0.956493 0.0
H_ H_ 0.858317 0.85455 0.941494 0.0
H_ H_ 0.905793 0.936173 0.95068 0.0
H_ H_ 0.884481 0.92901 0.898505 0.0
H_ H_ 0.911367 0.895512 0.903356 0.0
H_ H_ 0.909013 0.700527 0.580528 0.0
H_ H_ 0.905666 0.83855 0.982381 0.0
H_ H_ 0.779391 0.952545 0.949826 0.0
H_ H_ 0.756593 0.975148 0.520054 0.0
H_ H_ 0.903725 0.796077 0.793574 0.0
H_ H_ 0.967374 0.812101 0.808481 0.0
H_ H_ 0.95354 0.730445 0.799264 0.0
H_ H_ 0.937672 0.737649 0.851474 0.0
H_ H_ 0.989679 0.771083 0.846545 0.0
H_ H_ 0.883728 0.966159 0.669569 0.0
C_ C_ 0.96425 0.863123 0.726105 0.0
C_ C_ 0.752337 0.921982 0.797988 0.0
C_ C_ 0.976494 0.908064 0.756874 0.0
C_ C_ 0.940599 0.926958 0.708553 0.0
C_ C_ 0.938232 0.850247 0.688686 0.0
C_ C_ 0.920958 0.829125 0.621274 0.0
C_ C_ 0.925303 0.880865 0.680927 0.0
C_ C_ 0.964628 0.94006 0.747612 0.0
C_ C_ 0.899623 0.794298 0.577876 0.0
C_ C_ 0.859671 0.756081 0.581587 0.0
C_ C_ 0.816958 0.803491 0.523912 0.0
C_ C_ 0.810847 0.744642 0.952007 0.0
C_ C_ 0.79544 0.758583 0.993117 0.0
C_ C_ 0.995284 0.739794 0.541378 0.0
C_ C_ 0.800596 0.816409 0.561317 0.0
C_ C_ 0.799092 0.837537 0.628723 0.0
C_ C_ 0.764631 0.785872 0.56904 0.0
C_ C_ 0.759514 0.726647 0.00234335 0.0
C_ C_ 0.803929 0.872366 0.672137 0.0
C_ C_ 0.792678 0.910621 0.668461 0.0
C_ C_ 0.78575 0.803543 0.773895 0.0
C_ C_ 0.997663 0.744685 0.702012 0.0
C_ C_ 0.773506 0.758602 0.743126 0.0
C_ C_ 0.809401 0.739708 0.791447 0.0
C_ C_ 0.811768 0.81642 0.811314 0.0
C_ C_ 0.829042 0.837541 0.878726 0.0
C_ C_ 0.824697 0.785802 0.819073 0.0
C_ C_ 0.785372 0.726607 0.752388 0.0
C_ C_ 0.850377 0.872368 0.922124 0.0
C_ C_ 0.890329 0.910586 0.918413 0.0
C_ C_ 0.933042 0.863176 0.976088 0.0
C_ C_ 0.939153 0.922024 0.547993 0.0
C_ C_ 0.95456 0.908084 0.506883 0.0
C_ C_ 0.754716 0.926872 0.958622 0.0
C_ C_ 0.949404 0.850258 0.938683 0.0
C_ C_ 0.950908 0.82913 0.871277 0.0
C_ C_ 0.985369 0.880795 0.93096 0.0
C_ C_ 0.990486 0.94002 0.497657 0.0
C_ C_ 0.946071 0.794301 0.827863 0.0
C_ C_ 0.957322 0.756046 0.831539 0.0
N_ N_ 0.936382 0.817799 0.651215 0.0
N_ N_ 0.914247 0.86778 0.638591 0.0
N_ N_ 0.823091 0.848789 0.598813 0.0
N_ N_ 0.763328 0.79898 0.611365 0.0
N_ N_ 0.813618 0.848868 0.848785 0.0
N_ N_ 0.835753 0.798886 0.861409 0.0
N_ N_ 0.926909 0.817878 0.901187 0.0
N_ N_ 0.986672 0.867686 0.888635 0.0
O_ O_ 0.76022 0.961285 0.826817 0.0
O_ O_ 0.823257 0.956406 0.89321 0.0
O_ O_ 0.766775 0.894731 0.803733 0.0
O_ O_ 0.925193 0.774503 0.557365 0.0
O_ O_ 0.789241 0.70535 0.923174 0.0
O_ O_ 0.855963 0.710259 0.856775 0.0
O_ O_ 0.845745 0.771859 0.946274 0.0
O_ O_ 0.844353 0.892112 0.692614 0.0
O_ O_ 0.98978 0.705382 0.673183 0.0
O_ O_ 0.926743 0.71026 0.60679 0.0
O_ O_ 0.983225 0.771936 0.696267 0.0
O_ O_ 0.824807 0.892164 0.942635 0.0
O_ O_ 0.960759 0.961317 0.576826 0.0
O_ O_ 0.894037 0.956408 0.643225 0.0
O_ O_ 0.904255 0.894808 0.553726 0.0
O_ O_ 0.905647 0.774555 0.807386 0.0
