_cell_length_a 19.5206
_cell_length_b 17.9856
_cell_length_c 12.6054
_cell_angle_alpha 90.0
_cell_angle_beta 99.0355
_cell_angle_gamma 90.0
_symmetry_space_group_name_H-M         'P 1'
_symmetry_Int_Tables_number            1
loop_
_symmetry_equiv_pos_as_xyz
   'x, y, z'
                         
loop_
_atom_site_label
_atom_site_type_symbol
_atom_site_fract_x 
_atom_site_fract_y
_atom_site_fract_z
_atom_site_charge
C C 0.23254926401318674 0.896288414734833 0.6148505950969738 0.0
H H 0.2314292640131867 0.9468584147348329 0.5999205950969738 0.0
C C 0.23776592764575705 0.840402098854551 0.522979108199197 0.0
H H 0.23904592764575708 0.8590720988545512 0.4544391081991971 0.0
C C 0.23959471563235385 0.7843293979137551 0.5357129530012656 0.0
C C 0.24495293240547691 0.7556813071060307 0.6488549535766875 0.0
H H 0.24752293240547696 0.7052513071060307 0.6656149535766875 0.0
C C 0.23817612401561433 0.8041439348324986 0.7236121038485255 0.0
H H 0.2389561240156143 0.7870239348324984 0.7933821038485255 0.0
C C 0.3594587449422136 0.9455775444413912 0.9812924899850174 0.0
H H 0.3330387449422136 0.9129475444413914 1.0154624899850173 0.0
C C 0.4152130861891578 0.9445745267189655 1.0195951164292678 0.0
H H 0.43409308618915776 0.9176445267189655 1.0801551164292678 0.0
C C 0.45249492622046855 0.995297840055197 0.9659767956632602 0.0
C C 0.4382073952382299 1.0273631986470635 0.8840706129804614 0.0
H H 0.4639773952382298 1.0595331986470633 0.8481306129804613 0.0
C C 0.3610065274074308 1.0277445541050636 0.8460710686619627 0.0
H H 0.3407865274074307 1.0541145541050638 0.7856310686619625 0.0
C C 0.17362048660610804 0.8985087218741987 0.9895947002148484 0.0
C C 0.12748865338565926 0.8649849136024236 1.0512688409608228 0.0
C C 0.08939815453952442 0.7981789809754674 1.0174928603764386 0.0
H H 0.08977815453952441 0.7842589809754673 0.9464628603764386 0.0
C C 0.04837223299391507 0.7677011920807403 1.0706374307686075 0.0
H H 0.02275223299391507 0.7273811920807403 1.0397974307686078 0.0
C C 0.03605105140961362 0.7692275232286467 1.1701528244615504 0.0
C C 0.07863825144612217 0.8409831871031326 1.2124474067135296 0.0
H H 0.0758182514461222 0.8560531871031325 1.28221740671353 0.0
C C 0.12137181228650645 0.866926865010551 1.1572453624143073 0.0
C C 0.15868788924498645 0.9384927074063636 1.202620675689277 0.0
C C -0.0032363259273498848 0.735441905659575 1.2511151885548037 0.0
C C -0.05067080405950721 0.675383862522698 1.1871156642193306 0.0
F F -0.08700509574518542 0.7190716343039232 1.1168515891228887 0.0
F F -0.01985218295886865 0.6251002397196183 1.1320663393516126 0.0
F F -0.09746409966992603 0.6547738794909879 1.250683155884881 0.0
N N 0.23186380540803123 0.8782558260950919 0.7023642709600926 0.0
N N 0.3240012578310132 0.9737122051704716 0.8845402920348053 0.0
O O 0.174513298955511 0.9804945933480912 0.9968549422639552 0.0
O O 0.18705370255646706 0.8588226631457286 0.9188497121171869 0.0
O O 0.22843953066793338 0.937241525975876 1.2115076657294759 0.0
O O 0.14496094030629467 0.9771589041393851 1.2540013013999032 0.0
Zn Zn 0.21832263653667836 0.9437306334199772 0.8176444235799363 0.0
C C -0.2474932449133473 0.8891258774919738 -0.11491820724959033 0.0
H H -0.24637324491334728 0.9396958774919737 -0.09998820724959033 0.0
C C -0.23725227124399245 0.848895742122485 -0.027048608036085293 0.0
H H -0.23853227124399248 0.867565742122485 0.041491391963914694 0.0
C C -0.24530364349675932 0.7711362690380223 -0.03973681892917407 0.0
C C -0.24257927480011385 0.7634715538518413 -0.15239681219007137 0.0
H H -0.24514927480011378 0.7130415538518412 -0.16915681219007134 0.0
C C -0.2371038965534954 0.8021769471494612 -0.2271587952438932 0.0
H H -0.23788389655349537 0.7850569471494611 -0.29692879524389315 0.0
C C -0.36098450111476893 0.9286010221834118 -0.4844086533356619 0.0
H H -0.334564501114769 0.895971022183412 -0.518578653335662 0.0
C C -0.42637236324509853 0.9388670732210391 -0.5193221084869373 0.0
H H -0.4452523632450985 0.911937073221039 -0.5798821084869372 0.0
C C -0.46815564000215765 0.9858594187624682 -0.475745696976513 0.0
C C -0.44067713368026984 1.0285879815139471 -0.4027143602294997 0.0
H H -0.4664471336802698 1.060757981513947 -0.3667743602294998 0.0
C C -0.36954622655907743 1.0209890602594007 -0.3666707779818949 0.0
H H -0.3493262265590774 1.0473590602594007 -0.3062307779818948 0.0
C C -0.16686835777414044 0.9145477328858895 -0.4904061920768316 0.0
C C -0.12952018587327022 0.8613061028447251 -0.5612942272079923 0.0
C C -0.08073597146065022 0.7886397677302599 -0.506545240667491 0.0
H H -0.0811159714606502 0.77471976773026 -0.43551524066749087 0.0
C C -0.04045083743418017 0.7523407332779354 -0.5806436727460583 0.0
H H -0.01483083743418017 0.7120207332779354 -0.5498036727460582 0.0
C C -0.04138180095311844 0.7848367180341983 -0.683241443619104 0.0
C C -0.08128797835120793 0.8471658465434969 -0.7224511747397933 0.0
H H -0.07846797835120795 0.8622358465434968 -0.7922211747397934 0.0
C C -0.11666254003094655 0.8784248983360345 -0.6683409700017051 0.0
C C -0.159421046922001 0.9373514593985725 -0.7022549716028331 0.0
C C -0.0014274844155745096 0.7278359884744153 -0.7450519058962612 0.0
C C 0.057338046547866645 0.6734804814167508 -0.679391083672829 0.0
F F 0.09409712548658163 0.7132195686277425 -0.6030319059980286 0.0
F F 0.02076869147069205 0.6189797806518758 -0.6344573226113296 0.0
F F 0.10062627938440544 0.6505285475617203 -0.7327017989297083 0.0
N N -0.24127799118626103 0.8723248098735682 -0.22277996244115605 0.0
N N -0.3268910545288998 0.9798303642776266 -0.40527191230046866 0.0
O O -0.16325023687078996 0.9692043044253285 -0.5027079992142128 0.0
O O -0.18807327558985404 0.8665098023862148 -0.41101912850875855 0.0
O O -0.225089651506607 0.9268802040295052 -0.7074177863765366 0.0
O O -0.13709952592641028 0.9833129584459672 -0.7502087560887961 0.0
Zn Zn -0.2166052251366865 0.9463132269606669 -0.3173987904369063 0.0
C C 0.7429071539320586 1.390341552692001 0.6043302437789564 0.0
H H 0.7417871539320587 1.440911552692001 0.5894002437789563 0.0
C C 0.7464249083673439 1.3457298192787723 0.5225486713298166 0.0
H H 0.7477049083673439 1.3643998192787723 0.45400867132981665 0.0
C C 0.7412660578326606 1.2827203818787984 0.5318120162297756 0.0
C C 0.7521467542605936 1.2556972050967983 0.642962391673207 0.0
H H 0.7547167542605934 1.2052672050967983 0.659722391673207 0.0
C C 0.7478682800608915 1.3067708733468308 0.7295355392782913 0.0
H H 0.7486482800608915 1.2896508733468306 0.7993055392782913 0.0
C C 0.8572155367657633 1.43238930962194 0.9980381051916165 0.0
H H 0.8307955367657631 1.39975930962194 1.0322081051916165 0.0
C C 0.9259215016814202 1.4574409636852008 1.0259211345342127 0.0
H H 0.9448015016814203 1.430510963685201 1.0864811345342127 0.0
C C 0.9543363713427445 1.4905524226205058 0.9751469773224751 0.0
C C 0.9296327405661267 1.5319679473501437 0.8847613079756227 0.0
H H 0.9554027405661267 1.5641379473501438 0.8488213079756226 0.0
C C 0.8638514073032784 1.5120668490816471 0.8625822817791666 0.0
H H 0.8436314073032782 1.538436849081647 0.8021422817791665 0.0
C C 0.6603330723122403 1.4092057116766359 0.9745708452366453 0.0
C C 0.6312306453591433 1.3521138366794636 1.0634372666546352 0.0
C C 0.5848645846152787 1.3081940091581485 1.0161254702539027 0.0
H H 0.5852445846152785 1.2942740091581488 0.9450954702539026 0.0
C C 0.5406588629974781 1.268845934407749 1.0754831279108936 0.0
H H 0.5150388629974783 1.228525934407749 1.0446431279108936 0.0
C C 0.5446826228323713 1.28240427399205 1.1828043349577881 0.0
C C 0.5807817885214056 1.3296986051564208 1.2200603485070796 0.0
H H 0.5779617885214057 1.3447686051564207 1.28983034850708 0.0
C C 0.6117032562248735 1.3694824519311064 1.1529052740681012 0.0
C C 0.6672997641682519 1.435763516472223 1.207356337124658 0.0
C C 0.5017546451761139 1.2427798684226203 1.2510982385752791 0.0
C C 0.4404990512374654 1.171437266567804 1.1799981873771273 0.0
F F 0.39817741510489935 1.2243802212190242 1.110206621710969 0.0
F F 0.4658737117383062 1.1166580140267341 1.1389624248471295 0.0
F F 0.41141077470600035 1.1464189668866007 1.255507564709795 0.0
N N 0.7417677656729287 1.375272225941771 0.7087491165122337 0.0
N N 0.8172381618454523 1.473745546985571 0.8957692863807145 0.0
O O 0.6799398458160171 1.4681003885677302 1.0116569700448164 0.0
O O 0.682194568219568 1.373981395637137 0.9212357067201545 0.0
O O 0.7267505609170026 1.4315845676443208 1.2034946813958842 0.0
O O 0.6401735316887539 1.4816466341614596 1.2728585890317186 0.0
Zn Zn 0.723277354306353 1.455060794842094 0.8285534470117036 0.0
C C 0.25182139857875724 1.4003269483003888 -0.1087223409643098 0.0
H H 0.25294139857875725 1.4508969483003888 -0.0937923409643098 0.0
C C 0.25302829914212643 1.3448333001331763 -0.03311828730007045 0.0
H H 0.2517482991421265 1.3635033001331762 0.03542171269992953 0.0
C C 0.2600015999571858 1.2728746551700385 -0.046485045597247594 0.0
C C 0.24607287983326007 1.2578365759439432 -0.1584707633377063 0.0
H H 0.24350287983325997 1.2074065759439434 -0.1752307633377063 0.0
C C 0.25359322639087956 1.2936538547991274 -0.22658983848611253 0.0
H H 0.2528132263908796 1.2765338547991274 -0.29635983848611247 0.0
C C 0.14156712766074572 1.4418876272882626 -0.4769423924989698 0.0
H H 0.16798712766074575 1.4092576272882624 -0.5111123924989699 0.0
C C 0.08494573964469383 1.4543938420852442 -0.5132836566020472 0.0
H H 0.06606573964469381 1.4274638420852446 -0.5738436566020472 0.0
C C 0.03566161525329418 1.4927676427666805 -0.48640121580319495 0.0
C C 0.061488462008818814 1.5261351515996593 -0.39884694699963186 0.0
H H 0.0357184620088188 1.5583051515996593 -0.36290694699963194 0.0
C C 0.13544906548555982 1.5241827721466903 -0.3463807647043569 0.0
H H 0.15566906548555987 1.55055277214669 -0.2859407647043568 0.0
C C 0.3369061041841485 1.4082529323944586 -0.49580453036556593 0.0
C C 0.3824750967660951 1.360852706306849 -0.5522423909298041 0.0
C C 0.40981471138931264 1.3064689649764558 -0.5197822704718239 0.0
H H 0.40943471138931264 1.292548964976456 -0.44875227047182387 0.0
C C 0.4621739267909426 1.2539825407993375 -0.5775241692852278 0.0
H H 0.4877939267909426 1.2136625407993378 -0.5466841692852278 0.0
C C 0.4590758512240744 1.2751419938084014 -0.6800894475277072 0.0
C C 0.42055302405495276 1.3341809558561002 -0.7280247507599908 0.0
H H 0.4233730240549526 1.3492509558561 -0.7977947507599911 0.0
C C 0.3814770262391513 1.3678386544150543 -0.6598768318156365 0.0
C C 0.32631123675202756 1.4384134380084086 -0.7110802489844446 0.0
C C 0.5062043941074607 1.2335041906693638 -0.7384281667366843 0.0
C C 0.5468027517123812 1.1724580682695582 -0.6984978437916204 0.0
F F 0.5902771118682467 1.2187544449994618 -0.6018529430067778 0.0
F F 0.5262293115824881 1.129358793253253 -0.6288448780475792 0.0
F F 0.5954698680110535 1.153676185424967 -0.7470309055928506 0.0
N N 0.25677450089740245 1.385267915413828 -0.21292259680492354 0.0
N N 0.1849782737996466 1.4677768542795615 -0.38461092787684253 0.0
O O 0.3297510197785186 1.4652509689016895 -0.5084678130771327 0.0
O O 0.31903801478227795 1.363872562124056 -0.40993033706381143 0.0
O O 0.26883597454678543 1.4259509189410533 -0.7057595141756057 0.0
O O 0.3517240561664017 1.484925008236584 -0.7659566468196172 0.0
Zn Zn 0.2815748160206164 1.4524397090877355 -0.33405352628541246 0.0
C C -0.24345733925418453 -0.9059524532694091 -0.6078891897592954 0.0
H H -0.2423373392541845 -0.9565224532694091 -0.5929591897592954 0.0
C C -0.24326043630024208 -0.8579184947070267 -0.5351019766793915 0.0
H H -0.2445404363002421 -0.8765884947070268 -0.46656197667939153 0.0
C C -0.24044389969452715 -0.7741545728268477 -0.5298377777114947 0.0
C C -0.24015369849272147 -0.743187820215235 -0.6446697569931601 0.0
H H -0.24272369849272152 -0.692757820215235 -0.6614297569931601 0.0
C C -0.24824846369842346 -0.8109799571614436 -0.7270718326435263 0.0
H H -0.24902846369842344 -0.7938599571614435 -0.7968418326435263 0.0
C C -0.3460834881555512 -0.9377985963869461 -0.9781632705376557 0.0
H H -0.3196634881555511 -0.9051685963869462 -1.0123332705376558 0.0
C C -0.417845435989338 -0.9429329129869046 -1.0315112569074865 0.0
H H -0.43672543598933794 -0.9160029129869046 -1.0920712569074864 0.0
C C -0.4673410905818565 -1.0014536290665828 -0.9819728539481797 0.0
C C -0.4408607772487003 -1.0260653513360072 -0.8951943141787623 0.0
H H -0.4666307772487002 -1.058235351336007 -0.8592543141787622 0.0
C C -0.36469936076133297 -1.0145088163900993 -0.8606776683222255 0.0
H H -0.3444793607613329 -1.0408788163900995 -0.8002376683222254 0.0
C C -0.16594351419660566 -0.9138307451239911 -0.9929391700676425 0.0
C C -0.12097615085342416 -0.8644652957183293 -1.045551460234731 0.0
C C -0.08929898791256766 -0.8033318968743445 -1.0242305681028314 0.0
H H -0.08967898791256765 -0.7894118968743444 -0.9532005681028314 0.0
C C -0.049415628127851205 -0.7679591065247299 -1.0838911098630648 0.0
H H -0.023795628127851205 -0.7276391065247299 -1.0530511098630648 0.0
C C -0.043575164996286414 -0.7694421730546794 -1.1791670581657627 0.0
C C -0.06708597687591357 -0.8382578970684766 -1.2128592127300297 0.0
H H -0.06426597687591361 -0.8533278970684766 -1.28262921273003 0.0
C C -0.12274114977947946 -0.8791430006691764 -1.1540435084548943 0.0
C C -0.16694985018169042 -0.9352506111708676 -1.2285450558326254 0.0
C C -0.0002564234269130923 -0.7400347168144156 -1.2440478862013715 0.0
C C 0.06328076722538734 -0.6740231942057806 -1.1773980484222035 0.0
F F 0.08977506797047459 -0.7269475172786345 -1.103960534868894 0.0
F F 0.028820641524061632 -0.6292835334178615 -1.1243055595140272 0.0
F F 0.1034413248676557 -0.650964205133893 -1.2330559275790713 0.0
N N -0.24474619789233823 -0.8783251584562036 -0.7139549759395347 0.0
N N -0.32174400898692834 -0.9701507488746786 -0.8852284112431716 0.0
O O -0.17424646362577786 -0.9653133131393422 -1.011298836412966 0.0
O O -0.1951761035178868 -0.8640114926155982 -0.9362988400780624 0.0
O O -0.22027056630823366 -0.9258133985156731 -1.2074096929585485 0.0
O O -0.15029876665762024 -0.983941621326719 -1.2626350703264606 0.0
Zn Zn -0.2169893359314461 -0.9523054124108364 -0.8251312884929283 0.0
C C 0.2370968235762784 -0.9057401716764399 0.11312486766729467 0.0
H H 0.23597682357627842 -0.95631017167644 0.09819486766729467 0.0
C C 0.2442243616882632 -0.8444414602996511 0.034367693370547944 0.0
H H 0.2455043616882632 -0.8631114602996512 -0.03417230662945204 0.0
C C 0.24046773188486492 -0.7812898261686541 0.04303152567383062 0.0
C C 0.2515399138087873 -0.7610083189970398 0.14280911576999128 0.0
H H 0.2541099138087873 -0.7105783189970396 0.15956911576999128 0.0
C C 0.23933039103766482 -0.805723041474503 0.21862828367656617 0.0
H H 0.24011039103766477 -0.7886030414745029 0.2883982836765661 0.0
C C 0.345949091514841 -0.9401791252242466 0.48640999755161524 0.0
H H 0.319529091514841 -0.9075491252242468 0.5205799975516152 0.0
C C 0.42888934057233097 -0.9479837459985222 0.5320048651937872 0.0
H H 0.4477693405723309 -0.9210537459985222 0.5925648651937871 0.0
C C 0.46708233255766896 -1.002250093316835 0.49070987818633144 0.0
C C 0.4362975458159577 -1.0351887142048726 0.39705939751635194 0.0
H H 0.46206754581595755 -1.0673587142048722 0.36111939751635197 0.0
C C 0.3702287873697649 -1.0146629594251682 0.36067163016650744 0.0
H H 0.3500087873697649 -1.0410329594251682 0.30023163016650734 0.0
C C 0.1668949415809228 -0.8993672773795012 0.4920447123816657 0.0
C C 0.12986020940894744 -0.8470847395371486 0.5551689118149923 0.0
C C 0.07639048305456399 -0.802960992293122 0.5030107501070944 0.0
H H 0.07677048305456396 -0.7890409922931221 0.4319807501070943 0.0
C C 0.03930998820756869 -0.7553999316237503 0.576255464735008 0.0
H H 0.013689988207568695 -0.7150799316237502 0.545415464735008 0.0
C C 0.038962635835483476 -0.7734792967781995 0.6723258518498512 0.0
C C 0.0811534339208831 -0.8386070912711331 0.7303667691880189 0.0
H H 0.07833343392088313 -0.853677091271133 0.8001367691880191 0.0
C C 0.11401826375846297 -0.8867687749442055 0.6553185670030437 0.0
C C 0.16879007804510118 -0.9341769103723859 0.7311258629616869 0.0
C C -0.002021679329600737 -0.7333056144688556 0.7482688717936037 0.0
C C -0.06284197552474215 -0.6820598286770039 0.6740565693059689 0.0
F F -0.09141109209018444 -0.7182093436137117 0.6155941052635961 0.0
F F -0.023133442194440943 -0.6162749106508919 0.6366550818934732 0.0
F F -0.10408167462058665 -0.6478361320933383 0.7405649005704238 0.0
N N 0.22638992141852282 -0.8817023739770624 0.2023305334509819 0.0
N N 0.32105110944166504 -0.9782540279147197 0.39526968183284944 0.0
O O 0.17176349340542266 -0.9742215643441188 0.49377033278260907 0.0
O O 0.18167175900942334 -0.86446539242493 0.4130354934795097 0.0
O O 0.2204277154684541 -0.9347235930012648 0.7069158223269919 0.0
O O 0.13748981703955057 -0.9805785972413082 0.7586675195906544 0.0
Zn Zn 0.22294030600874268 -0.953451800612225 0.3243145445128175 0.0
C C 0.259041521665519 -0.40291355682812574 -0.6151148044473355 0.0
H H 0.2601615216655189 -0.4534835568281256 -0.6001848044473355 0.0
C C 0.26366291120633173 -0.35223380582455577 -0.5219117499285199 0.0
H H 0.2623829112063318 -0.3709038058245558 -0.4533717499285198 0.0
C C 0.25177300076884856 -0.2762394394439833 -0.5418508377391271 0.0
C C 0.2475384281101189 -0.2515397261481359 -0.6621872433112529 0.0
H H 0.24496842811011885 -0.2011097261481359 -0.6789472433112529 0.0
C C 0.2673942527596832 -0.309821050488878 -0.7141227976539962 0.0
H H 0.26661425275968315 -0.29270105048887796 -0.7838927976539962 0.0
C C 0.14562755456364818 -0.4439834760950876 -0.9949073191610319 0.0
H H 0.17204755456364818 -0.4113534760950876 -1.0290773191610318 0.0
C C 0.08522646196311558 -0.4402284906159384 -1.0122107327081848 0.0
H H 0.06634646196311558 -0.4132984906159383 -1.0727707327081848 0.0
C C 0.04026470345904553 -0.4988845878562677 -0.9818783236605673 0.0
C C 0.07098472741647598 -0.5356996263808348 -0.8804467687215722 0.0
H H 0.045214727416475954 -0.5678696263808346 -0.8445067687215722 0.0
C C 0.13943476118883208 -0.5259288352223028 -0.8578108780482263 0.0
H H 0.1596547611888321 -0.5522988352223028 -0.7973708780482262 0.0
C C 0.3279213907736307 -0.4086411485472651 -0.9996408381760947 0.0
C C 0.37744357288317404 -0.3648699114162735 -1.0612468864665439 0.0
C C 0.40931597590740587 -0.2993317375255006 -1.0179515280154803 0.0
H H 0.4089359759074058 -0.28541173752550064 -0.9469215280154802 0.0
C C 0.449949418101516 -0.2541839304386265 -1.0794764775559467 0.0
H H 0.475569418101516 -0.2138639304386265 -1.048636477555947 0.0
C C 0.45329337479089526 -0.2809702781055425 -1.1800951491999372 0.0
C C 0.42129204237490653 -0.33932352327505266 -1.226118571291033 0.0
H H 0.4241120423749065 -0.3543935232750526 -1.2958885712910335 0.0
C C 0.3864130173637584 -0.3697749685623911 -1.1652075192872426 0.0
C C 0.3283674423382746 -0.4323770353483856 -1.2316487593766388 0.0
C C 0.4977543291464643 -0.22611565200147504 -1.242591582031797 0.0
C C 0.561600931209936 -0.1852968529210025 -1.1768763257126174 0.0
F F 0.5884211946645211 -0.22241831035332302 -1.1200031227612484 0.0
F F 0.5187634892884571 -0.1267180732464199 -1.1427389216648098 0.0
F F 0.5908709623928137 -0.14893037926363376 -1.2401692856023658 0.0
N N 0.25899358059429967 -0.38876634953034606 -0.7118830527794794 0.0
N N 0.1808252499628839 -0.4721049640665734 -0.8868300172585049 0.0
O O 0.3272815712881661 -0.47075198358165304 -0.9914353484818489 0.0
O O 0.3097855485656809 -0.3712517163515794 -0.9288375613576518 0.0
O O 0.2732416820518923 -0.4424120512528336 -1.2203095677558984 0.0
O O 0.35881369777547795 -0.48856330297722905 -1.262890810570487 0.0
Zn Zn 0.26881393755932237 -0.44628968662437146 -0.83790555340337 0.0
C C 0.7403726755630463 -0.4053994098205894 0.11235243220802746 0.0
H H 0.7392526755630464 -0.45596940982058937 0.09742243220802746 0.0
C C 0.7429928805824594 -0.3592214334216432 0.021101149239252923 0.0
H H 0.7442728805824593 -0.3778914334216433 -0.04743885076074706 0.0
C C 0.7523326645647482 -0.2673747728822994 0.044308328666416846 0.0
C C 0.7481421023828321 -0.24951507647068538 0.15570450246410736 0.0
H H 0.750712102382832 -0.19908507647068538 0.17246450246410736 0.0
C C 0.7395882195185574 -0.3072649484213766 0.2146418209658085 0.0
H H 0.7403682195185575 -0.2901449484213766 0.28441182096580847 0.0
C C 0.8530358303437219 -0.4369623830407673 0.4817653441137937 0.0
H H 0.8266158303437217 -0.40433238304076724 0.5159353441137937 0.0
C C 0.9107538371144541 -0.45105078042962143 0.5206357575938791 0.0
H H 0.9296338371144541 -0.4241207804296215 0.5811957575938791 0.0
C C 0.9673788092697817 -0.49860534373677173 0.4915303729226119 0.0
C C 0.9354081914852651 -0.5408224849610499 0.394721463741028 0.0
H H 0.9611781914852653 -0.5729924849610497 0.35878146374102804 0.0
C C 0.8691404990661606 -0.517848105896557 0.3511827022679447 0.0
H H 0.8489204990661607 -0.5442181058965571 0.2907427022679447 0.0
C C 0.668922252916556 -0.3997926831741054 0.48883031893521295 0.0
C C 0.6231766198162093 -0.3645022040327144 0.5630162329628283 0.0
C C 0.5795549787535113 -0.29411637248169364 0.5034922312905148 0.0
H H 0.5799349787535112 -0.28019637248169377 0.43246223129051475 0.0
C C 0.5463783915571631 -0.26140939018088305 0.5686226516165472 0.0
H H 0.520758391557163 -0.22108939018088303 0.5377826516165471 0.0
C C 0.5416063145457 -0.27995003291018805 0.6811971815281902 0.0
C C 0.5761842316087401 -0.3378261484530784 0.7226047329288121 0.0
H H 0.5733642316087403 -0.3528961484530783 0.7923747329288122 0.0
C C 0.6168151279602271 -0.38702311126936334 0.6573160956235605 0.0
C C 0.671595148936757 -0.44166512514258816 0.7156282675921504 0.0
C C 0.5103568234441264 -0.23114075436237422 0.7619075168724468 0.0
C C 0.45159277748034155 -0.18169192715486607 0.6999856862648811 0.0
F F 0.40172957612411586 -0.22387039068259643 0.5963043064464975 0.0
F F 0.4681491647278407 -0.11424371431667249 0.629405448364451 0.0
F F 0.4058826732274852 -0.14985550000960213 0.758293233029751 0.0
N N 0.7434667121414953 -0.375989566326322 0.20522608310060703 0.0
N N 0.8307830176461456 -0.4673081366331977 0.4022075979240412 0.0
O O 0.6780210101330136 -0.47243071550851945 0.4950561656398878 0.0
O O 0.686264558018018 -0.36177914064397515 0.42766824064551495 0.0
O O 0.7277422183679978 -0.42105423331769876 0.7106512460205108 0.0
O O 0.6456116453600041 -0.48356606787661305 0.7574716998204432 0.0
Zn Zn 0.7302727545647789 -0.45773757521167296 0.33368563958704794 0.0
_cell_length_a 19.5206
_cell_length_b 17.9856
_cell_length_c 12.6054
_cell_angle_alpha 90.0
_cell_angle_beta 99.0355
_cell_angle_gamma 90.0
_symmetry_space_group_name_H-M         'P 1'
_symmetry_Int_Tables_number            1
loop_
_symmetry_equiv_pos_as_xyz
   'x, y, z'
                         
loop_
_atom_site_label
_atom_site_type_symbol
_atom_site_fract_x 
_atom_site_fract_y
_atom_site_fract_z
_atom_site_charge
C C 0.24038963270625893 0.8973074897368537 0.602860293870757 0.0
H H 0.2392696327062589 0.9478774897368536 0.587930293870757 0.0
C C 0.24975728457065613 0.8427546814967775 0.5302920873165804 0.0
H H 0.2510372845706561 0.8614246814967776 0.46175208731658046 0.0
C C 0.24233147489661266 0.783555552323177 0.5432297385480019 0.0
C C 0.2491185081319209 0.7512886693198687 0.650239322314246 0.0
H H 0.2516885081319209 0.7008586693198687 0.666999322314246 0.0
C C 0.2368790741590794 0.8124161507316613 0.7147991528358847 0.0
H H 0.2376590741590794 0.7952961507316613 0.7845691528358847 0.0
C C 0.3483564162781812 0.932713429616828 0.9863833203523592 0.0
H H 0.3219364162781812 0.9000834296168282 1.0205533203523591 0.0
C C 0.4128368949849246 0.9433711391524082 1.0157174854708648 0.0
H H 0.4317168949849245 0.9164411391524082 1.0762774854708645 0.0
C C 0.46778662395137616 0.9933240016544849 0.9847843649869018 0.0
C C 0.42508759535733126 1.026628938444259 0.8729464998200747 0.0
H H 0.4508575953573311 1.0587989384442587 0.8370064998200746 0.0
C C 0.3563453002755517 1.0092014489358307 0.8448389922268709 0.0
H H 0.33612530027555165 1.0355714489358308 0.7843989922268708 0.0
C C 0.15992089509460283 0.9056918213909673 0.9873184166039098 0.0
C C 0.13013998812480443 0.8664231937652217 1.0668068988386439 0.0
C C 0.07997483920124109 0.7953397196058178 1.0092349029821404 0.0
H H 0.08035483920124108 0.7814197196058178 0.9382049029821403 0.0
C C 0.04806812317533375 0.7697074629765632 1.0762112575823928 0.0
H H 0.022448123175333755 0.7293874629765632 1.045371257582393 0.0
C C 0.041685456921267135 0.7848298070813914 1.189752174296216 0.0
C C 0.08838694457690699 0.841106111847227 1.2269485748441389 0.0
H H 0.08556694457690703 0.8561761118472269 1.2967185748441394 0.0
C C 0.11130356494006464 0.8766100849184925 1.1491081734260609 0.0
C C 0.16586457170510197 0.9443485505438798 1.2105588215045304 0.0
C C 0.0018587110649640472 0.7329852801303951 1.2629785439287176 0.0
C C -0.04666718526661324 0.6787057971002777 1.1833240384188766 0.0
F F -0.09618857095574762 0.7170989077751199 1.1029659354143302 0.0
F F -0.016116825330501353 0.6260088898795255 1.1458063061775627 0.0
F F -0.09831031782015495 0.651700349186109 1.241603058273555 0.0
N N 0.22783362086961453 0.8735102746637307 0.6968700123275338 0.0
N N 0.3152607759113595 0.9643357861103996 0.8907519153064205 0.0
O O 0.16482831043695734 0.9693149090459331 0.9943699155490155 0.0
O O 0.18627693716826185 0.8706361292987359 0.9270135312744608 0.0
O O 0.23290291774290642 0.9332958037660998 1.221516365824985 0.0
O O 0.14593779899072698 0.9812974180499054 1.2518966044248376 0.0
Zn Zn 0.22207264640959065 0.9413735423844234 0.8251307710463787 0.0
C C -0.24559980259079786 0.9005721330060591 -0.10578550142739841 0.0
H H -0.24447980259079785 0.9511421330060591 -0.09085550142739841 0.0
C C -0.2395099859282978 0.8580559506968982 -0.0191653022463377 0.0
H H -0.2407899859282978 0.8767259506968983 0.04937469775366229 0.0
C C -0.24445289824010877 0.7705441839301322 -0.03589425348081914 0.0
C C -0.24933211181512682 0.759327500054357 -0.13830921359943746 0.0
H H -0.2519021118151268 0.708897500054357 -0.15506921359943746 0.0
C C -0.2435065201629704 0.8011315711167529 -0.2217716795959495 0.0
H H -0.24428652016297034 0.7840115711167529 -0.2915416795959495 0.0
C C -0.3617093298056973 0.9411736326477314 -0.4881494574406715 0.0
H H -0.3352893298056973 0.9085436326477315 -0.5223194574406715 0.0
C C -0.42100627645137434 0.957211530118263 -0.5248345531682284 0.0
H H -0.4398862764513743 0.9302815301182629 -0.5853945531682283 0.0
C C -0.46273205619545243 0.9955665603900528 -0.4785894813896571 0.0
C C -0.4349905364862484 1.0388477694359342 -0.3863161221108498 0.0
H H -0.4607605364862483 1.071017769435934 -0.3503761221108499 0.0
C C -0.360102837032955 1.024490302060746 -0.34522953018009184 0.0
H H -0.3398828370329549 1.0508603020607463 -0.28478953018009173 0.0
C C -0.16172755029559915 0.912461133761461 -0.4866627786113541 0.0
C C -0.11919522269973379 0.8559871309838748 -0.5509994349310283 0.0
C C -0.08166856515684714 0.8026833727467548 -0.5196279023342182 0.0
H H -0.08204856515684712 0.7887633727467549 -0.44859790233421803 0.0
C C -0.05267949710855901 0.7583871508011149 -0.5814155920357456 0.0
H H -0.02705949710855901 0.7180671508011147 -0.5505755920357456 0.0
C C -0.03380710809940558 0.7758146385446243 -0.6783915591724333 0.0
C C -0.0773511007262482 0.8387783406806594 -0.7325485095807239 0.0
H H -0.07453110072624823 0.8538483406806593 -0.8023185095807241 0.0
C C -0.1285251531160865 0.8831389692093349 -0.6698723625442603 0.0
C C -0.1709693887082554 0.9457567347433874 -0.7223167304843858 0.0
C C 0.0022952559690363927 0.7273252695512901 -0.7490000312949984 0.0
C C 0.04995265458702732 0.6834486586613959 -0.6969113116770396 0.0
F F 0.0871086859268995 0.7261085804570229 -0.6198059306144502 0.0
F F 0.029013483927656302 0.6242131615439419 -0.6416573634786743 0.0
F F 0.10241969593154131 0.6602065521789197 -0.7385346424139825 0.0
N N -0.23296407323016952 0.8796023246193092 -0.20330949012549104 0.0
N N -0.32733410503289173 0.9744564916262367 -0.4071276947831289 0.0
O O -0.1741609342207937 0.9801189406660599 -0.5108047633468125 0.0
O O -0.19785682395255003 0.8667059848599256 -0.42122532494365234 0.0
O O -0.22830303433855195 0.9414603550490667 -0.7120430338492075 0.0
O O -0.1421748804402516 0.9880452284525322 -0.7690575943159778 0.0
Zn Zn -0.21993744267937315 0.9437543650032724 -0.3239412229165469 0.0
C C 0.7406814336923294 1.397358965549534 0.6226599369885019 0.0
H H 0.7395614336923294 1.447928965549534 0.6077299369885019 0.0
C C 0.7397476815367385 1.3520423425346746 0.5267723832560683 0.0
H H 0.7410276815367384 1.3707123425346746 0.4582323832560683 0.0
C C 0.7382193762917592 1.2693243006419543 0.5382960438861413 0.0
C C 0.7488925581756685 1.2555864523840004 0.6373251223651382 0.0
H H 0.7514625581756683 1.2051564523840004 0.6540851223651382 0.0
C C 0.745366390465076 1.3016968728160074 0.7234532540225901 0.0
H H 0.7461463904650759 1.2845768728160072 0.7932232540225901 0.0
C C 0.8480051764388368 1.439552291537156 0.9882518359059363 0.0
H H 0.8215851764388367 1.4069222915371558 1.0224218359059363 0.0
C C 0.9167978335146164 1.4521252414017782 1.0314047028500397 0.0
H H 0.9356778335146163 1.4251952414017783 1.0919647028500394 0.0
C C 0.960761488621193 1.4978105072807546 0.9827657115000008 0.0
C C 0.9333383449701463 1.529216504188145 0.9031053252368912 0.0
H H 0.9591083449701465 1.5613865041881447 0.8671653252368912 0.0
C C 0.8709937980575516 1.5289325370792386 0.8593944894246941 0.0
H H 0.8507737980575516 1.5553025370792384 0.7989544894246939 0.0
C C 0.6713980548065129 1.406627231184266 0.9895806187221019 0.0
C C 0.6268990349274657 1.356039850090956 1.069169661751539 0.0
C C 0.5888965861822931 1.301841624906544 1.0168762692390227 0.0
H H 0.5892765861822931 1.2879216249065444 0.9458462692390227 0.0
C C 0.5453994663570055 1.2639057771328133 1.0778981801586827 0.0
H H 0.5197794663570057 1.2235857771328134 1.047058180158683 0.0
C C 0.5421122122780516 1.2818536006576557 1.1737221600179706 0.0
C C 0.5821353336474717 1.3377949072293263 1.235013781153546 0.0
H H 0.5793153336474718 1.3528649072293262 1.3047837811535463 0.0
C C 0.6132611407938312 1.3789340299563393 1.157055226750827 0.0
C C 0.6693125099768171 1.432241694731246 1.2280301242599652 0.0
C C 0.5032220426242913 1.2310975398324115 1.257698384949036 0.0
C C 0.4393327175268936 1.1731654672794625 1.193265397480278 0.0
F F 0.40536058947101666 1.2112438333462068 1.1131903419344145 0.0
F F 0.46265261315985606 1.1276525439947815 1.1232795480065925 0.0
F F 0.40681522481782645 1.1450532896536572 1.2442004758600274 0.0
N N 0.7344344465089937 1.3805257404739835 0.7194259357200403 0.0
N N 0.8207343871439805 1.4735404819030131 0.8970131162125554 0.0
O O 0.6810615413370782 1.4714407746901228 1.0017262714440174 0.0
O O 0.689941123111069 1.3665925761104658 0.9143133253359542 0.0
O O 0.7344377535953632 1.4277115286768123 1.2186746179458532 0.0
O O 0.6411654975680504 1.483825482689437 1.2557788711837634 0.0
Zn Zn 0.7253125632746787 1.455670095102467 0.8227391107908856 0.0
C C 0.2642310954152899 1.3984631713602391 -0.09797111407761101 0.0
H H 0.26535109541528995 1.449033171360239 -0.08304111407761101 0.0
C C 0.2498796603640431 1.349716936111129 -0.023351914821918722 0.0
H H 0.24859966036404316 1.368386936111129 0.04518808517808126 0.0
C C 0.2600264366218955 1.2676302606278873 -0.03480228943067784 0.0
C C 0.251725795764375 1.25553437939525 -0.15489615635036647 0.0
H H 0.2491557957643749 1.20510437939525 -0.17165615635036643 0.0
C C 0.25996203732296363 1.3057088258988703 -0.21819389348232152 0.0
H H 0.2591820373229636 1.2885888258988702 -0.2879638934823215 0.0
C C 0.1435799542976721 1.4300812071515328 -0.4818333732009682 0.0
H H 0.16999995429767206 1.3974512071515328 -0.5160033732009682 0.0
C C 0.07540521757020206 1.4370454641207024 -0.528134858933029 0.0
H H 0.056525217570202055 1.4101154641207028 -0.588694858933029 0.0
C C 0.037169759450756255 1.489180048792051 -0.47709999178138457 0.0
C C 0.06889570073732089 1.5211281985036615 -0.37875232321355146 0.0
H H 0.04312570073732086 1.5532981985036616 -0.3428123232135515 0.0
C C 0.13950248165225304 1.5293195249416556 -0.3523675422499178 0.0
H H 0.15972248165225306 1.5556895249416554 -0.29192754224991774 0.0
C C 0.3351219657473686 1.3980361999881348 -0.4802520680357885 0.0
C C 0.3764679091599431 1.3512442135526612 -0.5620310409618502 0.0
C C 0.40877238972674584 1.299379589062824 -0.5124134186849902 0.0
H H 0.4083923897267458 1.285459589062824 -0.4413834186849902 0.0
C C 0.45367767984466784 1.2605869945273422 -0.5733990043671672 0.0
H H 0.4792976798446678 1.2202669945273426 -0.5425590043671672 0.0
C C 0.46338897449649036 1.2707088379009848 -0.6722321166086698 0.0
C C 0.42325761144080704 1.3342889851413646 -0.7156309759306282 0.0
H H 0.4260776114408068 1.3493589851413645 -0.7854009759306283 0.0
C C 0.37560798543093643 1.3786853505064445 -0.654675515570287 0.0
C C 0.33249322955007954 1.4362343359239196 -0.7091933187063288 0.0
C C 0.49127402123223535 1.2314992144560095 -0.7566162382543956 0.0
C C 0.548869057954845 1.1833992911769924 -0.6950907111686724 0.0
F F 0.5985674707000681 1.2240814606636394 -0.6049314371203822 0.0
F F 0.5327276853836149 1.1361116817030845 -0.6305498001247192 0.0
F F 0.5943180744953869 1.1564643530610672 -0.7569087302496852 0.0
N N 0.26131406013167 1.3719026613169913 -0.21509024801715157 0.0
N N 0.1796907036744262 1.4675611143212013 -0.38577992186891075 0.0
O O 0.32265587489008424 1.4634020614756287 -0.5019589204014581 0.0
O O 0.3076851030693087 1.370002652286645 -0.42222225620505427 0.0
O O 0.2675219630985749 1.4323695488063395 -0.7243515722174242 0.0
O O 0.36342137357168236 1.4918707892627432 -0.7492001203395221 0.0
Zn Zn 0.28794294429360984 1.4558380731825589 -0.3232269687156208 0.0
C C -0.233892429894605 -0.8883785407867438 -0.6030173204819942 0.0
H H -0.23277242989460498 -0.9389485407867436 -0.5880873204819942 0.0
C C -0.23509301737256888 -0.8520022725529861 -0.5142593393782203 0.0
H H -0.2363730173725689 -0.8706722725529863 -0.4457193393782203 0.0
C C -0.24153937642680176 -0.7702176309757479 -0.5337154050530343 0.0
C C -0.24308099207786293 -0.7605309300503773 -0.6434208095628707 0.0
H H -0.24565099207786295 -0.7101009300503773 -0.6601808095628707 0.0
C C -0.2411946590717255 -0.797561450619171 -0.7220566006948147 0.0
H H -0.2419746590717255 -0.7804414506191709 -0.7918266006948147 0.0
C C -0.35382289868791766 -0.9289412954636194 -0.994742728016496 0.0
H H -0.32740289868791767 -0.8963112954636194 -1.028912728016496 0.0
C C -0.4218196269824092 -0.934669837891549 -1.028549684071551 0.0
H H -0.44069962698240916 -0.907739837891549 -1.0891096840715508 0.0
C C -0.4628223641793205 -0.9906526197682061 -0.9843856745832392 0.0
C C -0.42320383719824295 -1.0362604110397937 -0.8775835236042305 0.0
H H -0.44897383719824285 -1.0684304110397933 -0.8416435236042304 0.0
C C -0.36273186173284816 -1.0189581262010057 -0.8643168694274966 0.0
H H -0.34251186173284814 -1.045328126201006 -0.8038768694274965 0.0
C C -0.1661157808520788 -0.8976178287640778 -0.9890590189009415 0.0
C C -0.12835552332460448 -0.856991621338705 -1.0468464507420303 0.0
C C -0.08186834032712348 -0.8047372289381602 -1.0100699907341195 0.0
H H -0.08224834032712346 -0.7908172289381602 -0.9390399907341195 0.0
C C -0.03915523017022725 -0.7538182880177751 -1.0827073815858734 0.0
H H -0.013535230170227248 -0.713498288017775 -1.0518673815858735 0.0
C C -0.031798480863553844 -0.7789972834064562 -1.1657196987770484 0.0
C C -0.07060522104629152 -0.8375738960504897 -1.2153237938941468 0.0
H H -0.06778522104629156 -0.8526438960504895 -1.2850937938941471 0.0
C C -0.12232311508393028 -0.8738259822932878 -1.1526890456370829 0.0
C C -0.16789886349817984 -0.9353322816915495 -1.2149206032197022 0.0
C C 0.0007565469559306703 -0.7337990111373407 -1.2514810267412062 0.0
C C 0.060233632273162294 -0.6818600242292598 -1.1869015222694792 0.0
F F 0.09598512657527475 -0.7289123674132404 -1.1031025950393512 0.0
F F 0.03314903917226552 -0.617850770376654 -1.1293095602844947 0.0
F F 0.09654873974700329 -0.6506433419839148 -1.2369784371118318 0.0
N N -0.22977162821442007 -0.8831380070200662 -0.7091421086890458 0.0
N N -0.31456770509550663 -0.9751310899545969 -0.8848589476256925 0.0
O O -0.16909438162354173 -0.9724269438699652 -1.00612123549623 0.0
O O -0.18979090506537116 -0.8748981894359419 -0.9185421585806501 0.0
O O -0.23010356159415887 -0.9361761207874914 -1.2167037013061195 0.0
O O -0.14354838819469962 -0.9861497921924998 -1.250807978995261 0.0
Zn Zn -0.21770024830079845 -0.9439012669783743 -0.8189753298390777 0.0
C C 0.23392645750430868 -0.9062955525384447 0.10377877231291702 0.0
H H 0.23280645750430867 -0.9568655525384446 0.08884877231291702 0.0
C C 0.25202242123544527 -0.8517780035555016 0.04176310753509263 0.0
H H 0.2533024212354453 -0.8704480035555018 -0.026776892464907352 0.0
C C 0.2440411512781955 -0.7769994384559653 0.04391495698569005 0.0
C C 0.24603705688767238 -0.7632107979072902 0.14784413413762626 0.0
H H 0.24860705688767237 -0.7127807979072902 0.16460413413762626 0.0
C C 0.23088122892368362 -0.8027514544955955 0.2182965392612717 0.0
H H 0.23166122892368352 -0.7856314544955953 0.2880665392612717 0.0
C C 0.35222703315696596 -0.9330170968046767 0.49437304059419296 0.0
H H 0.3258070331569659 -0.9003870968046768 0.528543040594193 0.0
C C 0.42210880994389927 -0.9455198010830909 0.5241601823204862 0.0
H H 0.4409888099438992 -0.9185898010830909 0.5847201823204862 0.0
C C 0.4563082555803442 -0.9942283501650145 0.4725094975580033 0.0
C C 0.43851265588243055 -1.0362771782551154 0.39112365243560054 0.0
H H 0.4642826558824304 -1.068447178255115 0.3551836524356006 0.0
C C 0.360475248499129 -1.0205945413688553 0.35435360284635925 0.0
H H 0.3402552484991289 -1.0469645413688553 0.2939136028463592 0.0
C C 0.16689341209737796 -0.9017017885411674 0.4805174777064085 0.0
C C 0.12628788165300134 -0.8488540982566994 0.554541915948659 0.0
C C 0.08386547800860415 -0.7883053595514858 0.5081516802321827 0.0
H H 0.08424547800860414 -0.7743853595514859 0.4371216802321826 0.0
C C 0.043216244158225045 -0.7480392855582447 0.5741081328543345 0.0
H H 0.017596244158225055 -0.7077192855582446 0.5432681328543345 0.0
C C 0.04049881020481399 -0.7792852321924038 0.6826440973266826 0.0
C C 0.07879545557647248 -0.8297456459027753 0.7179637562994726 0.0
H H 0.0759754555764725 -0.8448156459027752 0.7877337562994727 0.0
C C 0.11397053842739727 -0.8820628266647815 0.6455468980597057 0.0
C C 0.16996395650190965 -0.9316368066551306 0.7093773958837054 0.0
C C -0.006132726644606781 -0.7292549830724124 0.7562893238051411 0.0
C C -0.05926135027077721 -0.6784501078208945 0.6731294862705587 0.0
F F -0.09321700399890934 -0.7099887803182263 0.6162319998926531 0.0
F F -0.02016495973979906 -0.6278871003014225 0.6381908494382025 0.0
F F -0.09550297425168051 -0.6399935001519975 0.7512385188554924 0.0
N N 0.23089888127971908 -0.8822835858744906 0.20951055726995377 0.0
N N 0.3192125162940712 -0.9767093695286552 0.39967727173659057 0.0
O O 0.16763679604295778 -0.9616625414037648 0.4994448969792486 0.0
O O 0.18246654738640086 -0.873021704979928 0.4121887003817651 0.0
O O 0.23120949471451993 -0.9332176700345979 0.7158570661535735 0.0
O O 0.14657406546924348 -0.9912349622810696 0.7572612320919629 0.0
Zn Zn 0.22663253364664415 -0.939168773962353 0.331606927879339 0.0
C C 0.26851336702035583 -0.3995342133813825 -0.6041152065670998 0.0
H H 0.26963336702035573 -0.4501042133813824 -0.5891852065670998 0.0
C C 0.24674846247633314 -0.3534536915251288 -0.5307738816257372 0.0
H H 0.2454684624763332 -0.3721236915251288 -0.4622338816257372 0.0
C C 0.25646079782080977 -0.2677849960316381 -0.5388158088808963 0.0
C C 0.2513141780619732 -0.2580409341169877 -0.6454847535943887 0.0
H H 0.24874417806197316 -0.20761093411698772 -0.6622447535943887 0.0
C C 0.25325565941255024 -0.3148316135531334 -0.7247926985610509 0.0
H H 0.2524756594125503 -0.29771161355313336 -0.7945626985610509 0.0
C C 0.14140360453116707 -0.42938273478123185 -0.9848737531389568 0.0
H H 0.16782360453116704 -0.3967527347812319 -1.0190437531389567 0.0
C C 0.08022304091653568 -0.4423931385050125 -1.027371880874303 0.0
H H 0.061343040916535654 -0.4154631385050125 -1.087931880874303 0.0
C C 0.041515869734728185 -0.49688832901365476 -0.984434441049726 0.0
C C 0.06786065963762526 -0.5280722928018284 -0.8953179797308973 0.0
H H 0.042090659637625254 -0.5602422928018282 -0.8593779797308972 0.0
C C 0.12906835801552374 -0.5215018779441873 -0.8649666270256827 0.0
H H 0.14928835801552376 -0.5478718779441873 -0.8045266270256827 0.0
C C 0.33658236926158297 -0.40619212458692383 -0.9732250383562678 0.0
C C 0.3786509250548851 -0.35280397744885583 -1.0565709879911707 0.0
C C 0.4059444260813515 -0.29857811448276905 -1.0206140837597564 0.0
H H 0.40556442608135157 -0.2846581144827691 -0.9495840837597563 0.0
C C 0.4562581043252864 -0.2650380329412873 -1.0761604330963699 0.0
H H 0.4818781043252863 -0.2247180329412873 -1.0453204330963701 0.0
C C 0.4663566942011218 -0.2730422673890023 -1.1731805230176495 0.0
C C 0.4188571964195637 -0.3333284890680695 -1.2266805815682116 0.0
H H 0.4216771964195637 -0.3483984890680695 -1.296450581568212 0.0
C C 0.37562506454473116 -0.38422011879924084 -1.1599435078105496 0.0
C C 0.32951977329373333 -0.43323314551564635 -1.2083548566949993 0.0
C C 0.5006980456009874 -0.21896205181669642 -1.2487098242048524 0.0
C C 0.5615568144932013 -0.17695849632682115 -1.1809078234402857 0.0
F F 0.593110289492482 -0.2198411137479531 -1.105941738179512 0.0
F F 0.5321168398831595 -0.13034708311833257 -1.1329752074081176 0.0
F F 0.5974562891586822 -0.1488871893809801 -1.2551891498239136 0.0
N N 0.25795572083557344 -0.37088462261676114 -0.7104631659197618 0.0
N N 0.18074705357062093 -0.4726544585183802 -0.8964166389192705 0.0
O O 0.3351387857406308 -0.47507704599837236 -1.002690938708173 0.0
O O 0.31928982531164907 -0.36654473687945177 -0.9236385608543827 0.0
O O 0.2784615749655929 -0.42491490310115887 -1.2175159256772243 0.0
O O 0.34775102557682536 -0.48699298125562 -1.264345282178342 0.0
Zn Zn 0.28346608360696446 -0.45008583880509445 -0.8149585864365726 0.0
C C 0.7470705365291114 -0.39799242105137855 0.12266658359179132 0.0
H H 0.7459505365291114 -0.4485624210513785 0.10773658359179132 0.0
C C 0.7448989655897018 -0.34668585604692986 0.03144675641363848 0.0
H H 0.7461789655897018 -0.36535585604692994 -0.037093243586361506 0.0
C C 0.7446272000975765 -0.28132282651631496 0.04578749396371744 0.0
C C 0.7545267520498583 -0.2512038944910662 0.15473571884174983 0.0
H H 0.7570967520498582 -0.20077389449106625 0.17149571884174983 0.0
C C 0.7350214556038608 -0.31278294576486143 0.21553985979980095 0.0
H H 0.7358014556038607 -0.29566294576486146 0.28530985979980095 0.0
C C 0.8556105752497478 -0.4296110012755301 0.4854534943963443 0.0
H H 0.8291905752497477 -0.3969810012755301 0.5196234943963443 0.0
C C 0.9213579697426002 -0.4457000290725175 0.5349553162964527 0.0
H H 0.9402379697426002 -0.4187700290725176 0.5955153162964526 0.0
C C 0.9625706864793083 -0.5046811352797893 0.47968502325432494 0.0
C C 0.9424977231301286 -0.5262903683988601 0.3975471304938543 0.0
H H 0.9682677231301288 -0.5584603683988599 0.36160713049385435 0.0
C C 0.8579012548826707 -0.5315906162447998 0.3494007406204454 0.0
H H 0.8376812548826706 -0.5579606162447998 0.28896074062044536 0.0
C C 0.6638740469771935 -0.404770654103527 0.47815506905215777 0.0
C C 0.6165122973104575 -0.36339820900262876 0.5470063339641755 0.0
C C 0.5756839180731389 -0.3017811748372829 0.5028660579385574 0.0
H H 0.5760639180731387 -0.287861174837283 0.43183605793855734 0.0
C C 0.5482019677450611 -0.26356670879033167 0.567347084813171 0.0
H H 0.5225819677450612 -0.22324670879033168 0.536507084813171 0.0
C C 0.5399180354926963 -0.27670007753307796 0.6888845281318066 0.0
C C 0.5830233314860586 -0.33077665381561316 0.7187760364225189 0.0
H H 0.5802033314860587 -0.34584665381561314 0.788546036422519 0.0
C C 0.612738928049357 -0.375501164609387 0.6639838116566225 0.0
C C 0.6744908382114193 -0.4329659848375386 0.7271805874201788 0.0
C C 0.5068637982873108 -0.23143947811297588 0.7582129423297579 0.0
C C 0.4541686572297825 -0.18364239211093494 0.6927337615113112 0.0
F F 0.4083572342527713 -0.2187684310636711 0.6188698202296256 0.0
F F 0.47796161862233577 -0.12785069690295148 0.6396985001124359 0.0
F F 0.40646060573091974 -0.14693943643880727 0.7429228939252935 0.0
N N 0.7269958082959248 -0.3783664672926562 0.2063936666124506 0.0
N N 0.825906459046706 -0.47894810059688253 0.3899651358018239 0.0
O O 0.665932068597179 -0.4817161118642795 0.5036261893768974 0.0
O O 0.6945770094245413 -0.3686638256837548 0.4219202651146798 0.0
O O 0.7212083252334862 -0.43367262022050346 0.711861630101089 0.0
O O 0.6425876656014834 -0.4874417312145301 0.7629468642585311 0.0
Zn Zn 0.7193721898739807 -0.4476859722400245 0.33025506164423846 0.0
