_cell_length_a 19.5206
_cell_length_b 17.9856
_cell_length_c 12.6054
_cell_angle_alpha 90.0
_cell_angle_beta 99.0355
_cell_angle_gamma 90.0
_symmetry_space_group_name_H-M         'P 1'
_symmetry_Int_Tables_number            1
loop_
_symmetry_equiv_pos_as_xyz
   'x, y, z'
                         
loop_
_atom_site_label
_atom_site_type_symbol
_atom_site_fract_x 
_atom_site_fract_y
_atom_site_fract_z
_atom_site_charge
C C 0.239836669208814 0.8970428211243567 0.6109546364080255 0.0
H H 0.23871666920881396 0.9476128211243566 0.5960246364080255 0.0
C C 0.2411916630793666 0.8587050058297878 0.5293902838490201 0.0
H H 0.24247166307936663 0.877375005829788 0.4608502838490201 0.0
C C 0.2508244665653915 0.7681809691154012 0.5462584182226489 0.0
C C 0.23744402496026518 0.7547655842048185 0.6509608297298408 0.0
H H 0.24001402496026522 0.7043355842048185 0.6677208297298408 0.0
C C 0.2356190426144924 0.7983281291722769 0.7174472174467411 0.0
H H 0.23639904261449235 0.7812081291722769 0.7872172174467411 0.0
C C 0.35125697986196547 0.9288691104075116 0.9731490568636838 0.0
H H 0.32483697986196547 0.8962391104075118 1.0073190568636838 0.0
C C 0.4311711713284906 0.9481785353743077 1.0329954213813672 0.0
H H 0.45005117132849054 0.9212485353743077 1.0935554213813672 0.0
C C 0.4649841988321722 0.9967216631672088 0.9859514177792144 0.0
C C 0.4267684866201535 1.029106513287657 0.8892923477878972 0.0
H H 0.45253848662015334 1.0612765132876567 0.8533523477878971 0.0
C C 0.3533863615573915 1.0210488382215228 0.8477069605985791 0.0
H H 0.33316636155739143 1.0474188382215228 0.7872669605985789 0.0
C C 0.16668255879293428 0.897531508714894 0.9956197669551381 0.0
C C 0.12598352407781055 0.8526480676304563 1.0500551347395117 0.0
C C 0.07819131817870215 0.7920416107053866 1.0176464011531683 0.0
H H 0.07857131817870214 0.7781216107053865 0.9466164011531683 0.0
C C 0.046075128381424094 0.7590647643573293 1.0606544305415837 0.0
H H 0.020455128381424093 0.7187447643573293 1.0298144305415837 0.0
C C 0.0398193944949944 0.7763553330788626 1.1792256988711702 0.0
C C 0.06685739590172748 0.8389394973890453 1.2162293187097957 0.0
H H 0.06403739590172751 0.8540094973890452 1.285999318709796 0.0
C C 0.1164293481912741 0.8715125106146641 1.1622054546560932 0.0
C C 0.1642214248043019 0.9332421614275612 1.2048937826781017 0.0
C C 0.001506103435547596 0.7298644744655863 1.2410651943373996 0.0
C C -0.050815912799141674 0.6824654115042443 1.1910174314146476 0.0
F F -0.09366640390252925 0.7140781856819692 1.1172887625125627 0.0
F F -0.024241844349949124 0.6242854952816226 1.130371769272062 0.0
F F -0.09480929004419077 0.6541400293989327 1.2403903559196614 0.0
N N 0.23378689262301497 0.8711903234388778 0.6940941055954097 0.0
N N 0.3227739487945428 0.9743556727172384 0.8983757352581238 0.0
O O 0.17355559853599284 0.9765207907293545 0.9955590484625659 0.0
O O 0.18871070927748915 0.8651552361754044 0.9068764406904394 0.0
O O 0.2213677499816402 0.9272434210225304 1.211480964936167 0.0
O O 0.14723454044208725 0.9781912747560024 1.2601986655427393 0.0
Zn Zn 0.2185695276569029 0.9486554546087551 0.8329831728539377 0.0
C C -0.2449459331890575 0.8940513632361622 -0.10408534769170666 0.0
H H -0.2438259331890575 0.9446213632361621 -0.08915534769170666 0.0
C C -0.24053520192655944 0.8408283376964223 -0.017887828523465252 0.0
H H -0.24181520192655945 0.8594983376964224 0.05065217147653474 0.0
C C -0.24770761618774254 0.7863261183535635 -0.04804119644432533 0.0
C C -0.2546721803121803 0.7518780597526876 -0.1486422932360441 0.0
H H -0.25724218031218027 0.7014480597526875 -0.16540229323604408 0.0
C C -0.2458470699153182 0.810668954982187 -0.2231501760533434 0.0
H H -0.24662706991531813 0.7935489549821869 -0.29292017605334336 0.0
C C -0.35981355702793344 0.9459879374689619 -0.4872520435964051 0.0
H H -0.3333935570279334 0.9133579374689621 -0.5214220435964052 0.0
C C -0.4221109694542211 0.94384095111121 -0.5354995312621594 0.0
H H -0.44099096945422106 0.91691095111121 -0.5960595312621594 0.0
C C -0.46020552401392634 0.9864502126342878 -0.4779076411028408 0.0
C C -0.42706422224328167 1.0371647457409057 -0.3810018156063326 0.0
H H -0.4528342222432816 1.0693347457409055 -0.3450618156063327 0.0
C C -0.3696399901977867 1.0189186429617512 -0.3497698113642033 0.0
H H -0.3494199901977867 1.0452886429617512 -0.28932981136420327 0.0
C C -0.17402719987701085 0.8990075126305269 -0.48609194965874924 0.0
C C -0.1210527795213222 0.8563472940992428 -0.5436960830103296 0.0
C C -0.09136777165626764 0.8030006774546468 -0.5182696955229932 0.0
H H -0.09174777165626762 0.7890806774546468 -0.4472396955229931 0.0
C C -0.03828228142176679 0.7632406679801357 -0.562614593750576 0.0
H H -0.012662281421766793 0.7229206679801357 -0.531774593750576 0.0
C C -0.038056384964033525 0.7794935844907087 -0.6700654183171575 0.0
C C -0.07077854801542811 0.8459042777898348 -0.7184967339390278 0.0
H H -0.06795854801542812 0.8609742777898347 -0.7882667339390279 0.0
C C -0.12332837361729101 0.8747629457215076 -0.664313048368261 0.0
C C -0.16374582057191986 0.9251062578339749 -0.7118755522574242 0.0
C C 0.0014053555016518729 0.7229458838973405 -0.745739975576388 0.0
C C 0.05316037889198953 0.6837192930650077 -0.6812908968924706 0.0
F F 0.09591188928732902 0.71429973996544 -0.6152657461466368 0.0
F F 0.021310214088457465 0.6180728171982882 -0.644947684354424 0.0
F F 0.09126668680129746 0.6565361434190019 -0.7452215715528819 0.0
N N -0.23720615460324898 0.8835642656936292 -0.21036657553560953 0.0
N N -0.3176590172122751 0.9659123015122657 -0.3962272602169419 0.0
O O -0.17748935150629785 0.9657599824139358 -0.5025694961971698 0.0
O O -0.19452622253482982 0.8607969089764583 -0.4188508940061005 0.0
O O -0.23879215489622818 0.9330707114669625 -0.7149264217192691 0.0
O O -0.14508246060117938 0.9795062499621746 -0.7653380773438045 0.0
Zn Zn -0.2265958736603043 0.9492074577405901 -0.3172678701346768 0.0
C C 0.7403368411841335 1.401482314660066 0.623117822423597 0.0
H H 0.7392168411841334 1.452052314660066 0.608187822423597 0.0
C C 0.7464555533394432 1.3610470330998916 0.5284349107539335 0.0
H H 0.7477355533394433 1.3797170330998916 0.4598949107539335 0.0
C C 0.7495739147259683 1.2804186071610961 0.5571525260151782 0.0
C C 0.7481859238437852 1.2623540795199504 0.6535318198708485 0.0
H H 0.750755923843785 1.2119240795199504 0.6702918198708485 0.0
C C 0.7433511153801505 1.3111870903583922 0.7291714217413235 0.0
H H 0.7441311153801504 1.294067090358392 0.7989414217413235 0.0
C C 0.8600939416350201 1.4291343588130858 0.98229242783168 0.0
H H 0.83367394163502 1.3965043588130859 1.01646242783168 0.0
C C 0.9185766461746598 1.452229332924865 1.0238154428223425 0.0
H H 0.9374566461746598 1.425299332924865 1.0843754428223422 0.0
C C 0.9630587644067655 1.48552154276871 0.9744337992617683 0.0
C C 0.9300881931699906 1.5344926800367331 0.8891482925960787 0.0
H H 0.9558581931699908 1.566662680036733 0.8532082925960787 0.0
C C 0.8531745266719828 1.52357005375069 0.8412746178209327 0.0
H H 0.8329545266719827 1.54994005375069 0.7808346178209327 0.0
C C 0.6596417451881151 1.4070813795827308 0.9794206918595824 0.0
C C 0.6323026028781253 1.359052272207969 1.0508739524155921 0.0
C C 0.5833428424334134 1.3007177770471403 1.021611352847341 0.0
H H 0.5837228424334133 1.2867977770471406 0.9505813528473409 0.0
C C 0.5508147254784302 1.2598345239267905 1.0836496116397336 0.0
H H 0.5251947254784304 1.2195145239267908 1.0528096116397339 0.0
C C 0.5407240019761784 1.2804576079428667 1.1864347534692936 0.0
C C 0.5793228809558231 1.3486299427724007 1.2287115163972855 0.0
H H 0.5765028809558231 1.3636999427724006 1.2984815163972858 0.0
C C 0.6263053224446347 1.3730338651867837 1.1570781928899694 0.0
C C 0.66694999065036 1.4416724607494773 1.2076983650255935 0.0
C C 0.49657455821169816 1.2209215168226701 1.2469587715845176 0.0
C C 0.4378003967025639 1.187221259069051 1.1838452254836547 0.0
F F 0.40648936883191383 1.2193498041344635 1.1093607298429566 0.0
F F 0.4687915698866537 1.1221941757954568 1.146059697762508 0.0
F F 0.40171585617462224 1.1572252318136116 1.241669313775142 0.0
N N 0.7417709711528775 1.3784910909165593 0.7180874512821047 0.0
N N 0.8257507104462397 1.47221256230075 0.9097327634613595 0.0
O O 0.6806173078455905 1.469076995636732 1.0067136541065542 0.0
O O 0.6894246976435016 1.3576391212766692 0.9169072492888165 0.0
O O 0.7186971380083834 1.4368690786414742 1.212720532078639 0.0
O O 0.6498270712268884 1.4764822271680202 1.260716340364245 0.0
Zn Zn 0.7173490728950284 1.445140213523521 0.83334252566356 0.0
C C 0.26904711390864366 1.4033589898162564 -0.1089594503954002 0.0
H H 0.2701671139086437 1.4539289898162564 -0.09402945039540021 0.0
C C 0.256760950264182 1.348133306356914 -0.015164700377009179 0.0
H H 0.25548095026418205 1.366803306356914 0.0533752996229908 0.0
C C 0.25174889863572586 1.268032907641016 -0.04298885984764383 0.0
C C 0.2626768769541429 1.2518613820281064 -0.13992496457599324 0.0
H H 0.2601068769541428 1.2014313820281064 -0.1566849645759932 0.0
C C 0.2577993903240761 1.2950447151742817 -0.2299563783854911 0.0
H H 0.25701939032407617 1.2779247151742816 -0.29972637838549104 0.0
C C 0.1437417563989161 1.4416054581834827 -0.49379113524373897 0.0
H H 0.17016175639891612 1.4089754581834826 -0.527961135243739 0.0
C C 0.06986120636708763 1.44491811103691 -0.5239916063375932 0.0
H H 0.05098120636708762 1.4179881110369101 -0.5845516063375932 0.0
C C 0.03892282460500283 1.483143507752846 -0.4813335892743372 0.0
C C 0.06817730511636204 1.5295687424086417 -0.37484126798002143 0.0
H H 0.04240730511636202 1.5617387424086415 -0.3389012679800215 0.0
C C 0.13540625225138203 1.5252637324702698 -0.3384381382334601 0.0
H H 0.15562625225138205 1.5516337324702696 -0.27799813823346 0.0
C C 0.3268677814954405 1.402464840225679 -0.49451790183453437 0.0
C C 0.376161326864826 1.3642870991092013 -0.5599889462846811 0.0
C C 0.41836698238690434 1.3023084520916146 -0.5148762635284221 0.0
H H 0.41798698238690435 1.288388452091615 -0.443846263528422 0.0
C C 0.44900597130696623 1.2631500201513823 -0.5849181627610847 0.0
H H 0.4746259713069662 1.2228300201513824 -0.5540781627610847 0.0
C C 0.45510588804448193 1.2785659457932674 -0.681900980187241 0.0
C C 0.42320026510904407 1.3478587248142437 -0.712612261748924 0.0
H H 0.4260202651090439 1.3629287248142437 -0.7823822617489241 0.0
C C 0.38306253628054837 1.3786613478828962 -0.652614034575193 0.0
C C 0.3322844508662017 1.43420091884431 -0.7223390886878972 0.0
C C 0.5002041260519188 1.228724909773313 -0.755863101744172 0.0
C C 0.5514488004759296 1.1892813289950437 -0.6904544682390276 0.0
F F 0.6045030668073161 1.217173688074491 -0.5995112996729663 0.0
F F 0.5221980950207992 1.1184270682726025 -0.628945078291673 0.0
F F 0.5941801747216203 1.1467508242379043 -0.7382834398020965 0.0
N N 0.2628918437445478 1.3706370095288876 -0.19917568145723438 0.0
N N 0.17793624808035502 1.4766995455113683 -0.40211345205478227 0.0
O O 0.33139388206194126 1.4724090115452553 -0.5115478799976236 0.0
O O 0.3153127521395173 1.3672848824620114 -0.43326273565048123 0.0
O O 0.2741268132742642 1.4311745765234016 -0.7243518042965483 0.0
O O 0.3535120918789201 1.4828244262865617 -0.7644157269205812 0.0
Zn Zn 0.2850577583492366 1.4454409491557505 -0.31809753247413014 0.0
C C -0.2320359543426951 -0.9003101959526704 -0.599086341149395 0.0
H H -0.23091595434269507 -0.9508801959526704 -0.584156341149395 0.0
C C -0.24377349155800765 -0.8481439283998754 -0.5378230512189044 0.0
H H -0.24505349155800768 -0.8668139283998755 -0.4692830512189044 0.0
C C -0.24572070935221105 -0.7671501286582009 -0.5473750446108027 0.0
C C -0.25502505444447665 -0.7555246172460723 -0.6492856137930593 0.0
H H -0.2575950544444766 -0.7050946172460723 -0.6660456137930593 0.0
C C -0.24353038297003216 -0.7974345185511766 -0.7361012557625194 0.0
H H -0.24431038297003213 -0.7803145185511765 -0.8058712557625194 0.0
C C -0.3485932169298284 -0.9413719851812367 -0.9951459209676942 0.0
H H -0.32217321692982837 -0.9087419851812368 -1.029315920967694 0.0
C C -0.42685206657385544 -0.9536770748688006 -1.0201301068665005 0.0
H H -0.4457320665738554 -0.9267470748688005 -1.0806901068665005 0.0
C C -0.45806104427585614 -0.9968233390727408 -0.9693621603281689 0.0
C C -0.43051815613315064 -1.032689496016574 -0.9001044131130692 0.0
H H -0.4562881561331505 -1.0648594960165736 -0.8641644131130691 0.0
C C -0.35974650981312434 -1.023930320625587 -0.8464333705446371 0.0
H H -0.33952650981312427 -1.0503003206255872 -0.7859933705446369 0.0
C C -0.16841205286822308 -0.9107932187188158 -0.9980234522682188 0.0
C C -0.1311052198712996 -0.8526246067050444 -1.0599866212836746 0.0
C C -0.08053686108865318 -0.7941853281238344 -1.010102072690168 0.0
H H -0.08091686108865317 -0.7802653281238343 -0.9390720726901678 0.0
C C -0.04333689541434601 -0.7680445356529985 -1.078884346879985 0.0
H H -0.017716895414346023 -0.7277245356529984 -1.0480443468799852 0.0
C C -0.03318151664994707 -0.7755436101076948 -1.1744221256065108 0.0
C C -0.08553984432755013 -0.8395119917238365 -1.2189124896939312 0.0
H H -0.08271984432755014 -0.8545819917238363 -1.2886824896939315 0.0
C C -0.12437273003197319 -0.8794151986246651 -1.1765062406417597 0.0
C C -0.1642790310774211 -0.9374357864316264 -1.2154408239993988 0.0
C C 0.006014158845270497 -0.7346862080511701 -1.2579760755259435 0.0
C C 0.045947419052364984 -0.6815916707355555 -1.199917532810964 0.0
F F 0.10184335709772739 -0.7181245489221763 -1.1161887119078755 0.0
F F 0.031729091833840345 -0.6149419676031521 -1.1357934055693655 0.0
F F 0.08940471059372798 -0.6427153492453094 -1.2488962435844757 0.0
N N -0.23562225582198784 -0.8805875710086865 -0.7211818335863732 0.0
N N -0.32185298997479717 -0.9638919630460979 -0.8878451706476277 0.0
O O -0.16608622373553789 -0.9743743581688222 -0.9919414798160372 0.0
O O -0.19087401690608394 -0.8656883906510854 -0.9317634638690115 0.0
O O -0.2211186466321025 -0.9283972764126657 -1.2184073777213635 0.0
O O -0.1460794837022749 -0.9840967518634747 -1.2483887318288032 0.0
Zn Zn -0.2157080716329979 -0.9561339602102846 -0.8237776579709503 0.0
C C 0.2414857536568726 -0.8964512252708599 0.1236425400010276 0.0
H H 0.2403657536568726 -0.9470212252708597 0.10871254000102762 0.0
C C 0.2432117707846961 -0.845624927000223 0.026351193053400876 0.0
H H 0.2444917707846961 -0.8642949270002231 -0.04218880694659911 0.0
C C 0.24197750544712288 -0.775343318765524 0.03577284419444228 0.0
C C 0.239090529528952 -0.7617087045277234 0.14108677031805147 0.0
H H 0.24166052952895195 -0.7112787045277235 0.15784677031805144 0.0
C C 0.23883569517173497 -0.8125465933333452 0.2340973037080518 0.0
H H 0.23961569517173492 -0.7954265933333452 0.30386730370805176 0.0
C C 0.3480474717984285 -0.9473760875083914 0.48202859852549607 0.0
H H 0.32162747179842843 -0.9147460875083916 0.5161985985254961 0.0
C C 0.42159235687976265 -0.9461269570338955 0.5235421182594386 0.0
H H 0.4404723568797626 -0.9191969570338955 0.5841021182594386 0.0
C C 0.4693990393396412 -0.9952465769287554 0.48772426456608353 0.0
C C 0.4336563025639866 -1.0348850461605066 0.3981144036762951 0.0
H H 0.4594263025639865 -1.0670550461605062 0.3621744036762951 0.0
C C 0.369585262186045 -1.0238469036868236 0.3487148982433034 0.0
H H 0.34936526218604497 -1.0502169036868236 0.28827489824330327 0.0
C C 0.16581207633093917 -0.9072525112058517 0.4930826555369573 0.0
C C 0.12647698374508218 -0.8624912073759042 0.5544677942347412 0.0
C C 0.0756261316321413 -0.797558387196998 0.5083675331401596 0.0
H H 0.07600613163214127 -0.7836383871969981 0.4373375331401595 0.0
C C 0.040704700527569505 -0.7637219233383504 0.5819995071425527 0.0
H H 0.015084700527569514 -0.7234019233383504 0.5511595071425527 0.0
C C 0.040427808792861536 -0.7898246096417648 0.6767646061592512 0.0
C C 0.0734217960563156 -0.847398106272137 0.7221771813271077 0.0
H H 0.07060179605631561 -0.8624681062721369 0.791947181327108 0.0
C C 0.11414729607476401 -0.8720971832107657 0.6570786470615185 0.0
C C 0.16280083094896622 -0.9451797487401563 0.7145004797274455 0.0
C C 0.005038476488753535 -0.7218624201472117 0.7514632618608541 0.0
C C -0.053230276858181325 -0.681100406069268 0.6780339009263148 0.0
F F -0.08531390764993899 -0.7209961137168013 0.6136703306877501 0.0
F F -0.028677302942574853 -0.6173669783321256 0.6384851892603887 0.0
F F -0.09553850295905861 -0.6497439235154229 0.741150317358759 0.0
N N 0.2417317439511409 -0.8777868245948295 0.20636780297957857 0.0
N N 0.3174777632090946 -0.9803136498335911 0.3905691750799596 0.0
O O 0.17545921982950793 -0.9718011923446976 0.5051953714879187 0.0
O O 0.18449704234500747 -0.8648419246009028 0.41799984763693787 0.0
O O 0.2310907628090232 -0.9426855934447923 0.7146593682415788 0.0
O O 0.13703292668328876 -0.9852825966364177 0.7477874776467894 0.0
Zn Zn 0.22483170694070984 -0.9556575080739489 0.3185720830682533 0.0
C C 0.25880328158820654 -0.398989481814751 -0.6247662991107983 0.0
H H 0.2599232815882065 -0.44955948181475097 -0.6098362991107983 0.0
C C 0.25577091332769863 -0.34280344136133434 -0.5341687418140801 0.0
H H 0.2544909133276987 -0.36147344136133436 -0.4656287418140801 0.0
C C 0.24266872747185833 -0.2761014017168707 -0.54801970369051 0.0
C C 0.24374150193198996 -0.2570855392121584 -0.6524935130860162 0.0
H H 0.2411715019319899 -0.20665553921215843 -0.6692535130860162 0.0
C C 0.25684796134778926 -0.2971867057588278 -0.7179946032419138 0.0
H H 0.2560679613477893 -0.28006670575882775 -0.7877646032419138 0.0
C C 0.1464280863735162 -0.4402171910408176 -0.9866969676264097 0.0
H H 0.1728480863735162 -0.40758719104081764 -1.0208669676264097 0.0
C C 0.07511758692166219 -0.450424430444245 -1.0342628222274943 0.0
H H 0.05623758692166217 -0.423494430444245 -1.0948228222274943 0.0
C C 0.030637184814693345 -0.4927278449936125 -0.9812828923859447 0.0
C C 0.06833400408370563 -0.537350323205213 -0.8882510957423779 0.0
H H 0.04256400408370562 -0.5695203232052128 -0.8523110957423778 0.0
C C 0.14254990338521983 -0.5211805312899825 -0.8437603345998759 0.0
H H 0.16276990338521985 -0.5475505312899825 -0.7833203345998757 0.0
C C 0.34011225908318155 -0.41251557502822017 -0.9909424987496085 0.0
C C 0.3709800875647607 -0.3485550889490815 -1.0551450397251376 0.0
C C 0.41560437097520414 -0.30964002371034693 -1.0159175209625448 0.0
H H 0.41522437097520404 -0.295720023710347 -0.9448875209625449 0.0
C C 0.46389408487660894 -0.25434346964469484 -1.0723593041222457 0.0
H H 0.4895140848766089 -0.21402346964469487 -1.041519304122246 0.0
C C 0.46119468080062676 -0.2789851661974826 -1.1682393972663512 0.0
C C 0.4276314165708162 -0.33704282179700135 -1.2305053835209339 0.0
H H 0.4304514165708161 -0.3521128217970013 -1.3002753835209344 0.0
C C 0.3817281063583343 -0.3759265166914158 -1.165244816978614 0.0
C C 0.34054022160472897 -0.44094020593930305 -1.2102876119882329 0.0
C C 0.5046947191876252 -0.22280611678689494 -1.2546801973406005 0.0
C C 0.5609963626674507 -0.17304352755761268 -1.1885201257597424 0.0
F F 0.6027136079450481 -0.2203469245359645 -1.1067541601441813 0.0
F F 0.5277123048006839 -0.12013567291642616 -1.1238146822154034 0.0
F F 0.5926317356701006 -0.1512222736132783 -1.2508387650740023 0.0
N N 0.2628815487048356 -0.378429611705109 -0.711721060712151 0.0
N N 0.18028961115352243 -0.4757526182617324 -0.8815400844124237 0.0
O O 0.3246101555139999 -0.47654064098492543 -1.0116092607226506 0.0
O O 0.30085976019548033 -0.3739889609014195 -0.9227531388171893 0.0
O O 0.27421883265064 -0.4260351068049416 -1.204152007683568 0.0
O O 0.3586337182054733 -0.4775264962845288 -1.250370985638812 0.0
Zn Zn 0.27111150161085074 -0.4587341618809596 -0.8346459709464475 0.0
C C 0.7381430357910679 -0.3977571159626293 0.10726239257890649 0.0
H H 0.7370230357910678 -0.44832711596262925 0.09233239257890649 0.0
C C 0.7449673172709104 -0.34981036201551524 0.012443755716919228 0.0
H H 0.7462473172709104 -0.3684803620155153 -0.056096244283080764 0.0
C C 0.7536045872727449 -0.2797611563970202 0.05057043601857595 0.0
C C 0.7455875374617121 -0.24628910919970257 0.1573754849845916 0.0
H H 0.7481575374617121 -0.19585910919970254 0.17413548498459164 0.0
C C 0.738614100870884 -0.30138838470747287 0.22773994664289215 0.0
H H 0.739394100870884 -0.28426838470747284 0.2975099466428921 0.0
C C 0.8545078274895463 -0.42676117839445793 0.48748500260807043 0.0
H H 0.8280878274895462 -0.39413117839445794 0.5216550026080705 0.0
C C 0.9276504164410811 -0.44935090250893983 0.523668572718225 0.0
H H 0.9465304164410813 -0.4224209025089399 0.5842285727182249 0.0
C C 0.9637692216349942 -0.501462692900451 0.47839769850719477 0.0
C C 0.9336390827459241 -0.5360958972043105 0.3769477804340961 0.0
H H 0.9594090827459243 -0.5682658972043102 0.34100778043409613 0.0
C C 0.8573732596012429 -0.521695815642941 0.33694699422647667 0.0
H H 0.8371532596012429 -0.548065815642941 0.2765069942264766 0.0
C C 0.671243276350649 -0.40206297116334627 0.4903907062294282 0.0
C C 0.6196962989357174 -0.3578656599483888 0.5558042049557779 0.0
C C 0.5923775781217981 -0.29811590757079165 0.5114163394447062 0.0
H H 0.592757578121798 -0.2841959075707917 0.4403863394447061 0.0
C C 0.5483801532129651 -0.2545933508210591 0.5732249319694876 0.0
H H 0.522760153212965 -0.2142733508210591 0.5423849319694877 0.0
C C 0.5378415623853674 -0.2756438730618797 0.6773070923764098 0.0
C C 0.5674766782685783 -0.3415888371317019 0.7147131205069245 0.0
H H 0.5646566782685785 -0.3566588371317019 0.7844831205069246 0.0
C C 0.6259876989390332 -0.3762954422232058 0.6556679527695269 0.0
C C 0.6697360996551153 -0.43253644377127237 0.7049303018363211 0.0
C C 0.4964477035427433 -0.23303656965594519 0.7489663351914101 0.0
C C 0.4407748268028598 -0.17512977492956486 0.6853837551017051 0.0
F F 0.40513482332823536 -0.2159768087327102 0.6169156407872773 0.0
F F 0.47130998275125424 -0.1351573183881382 0.6308289145125568 0.0
F F 0.4053241550960821 -0.14779444460200955 0.7479483604360254 0.0
N N 0.7340142555592086 -0.38225532882778657 0.21634788865245425 0.0
N N 0.8312765208694307 -0.47551534125741163 0.4085133991755688 0.0
O O 0.6692769672063708 -0.46745848382079025 0.501069329917121 0.0
O O 0.6801277969099347 -0.3694400141493787 0.42200757757137725 0.0
O O 0.7190341248011183 -0.4339060505821375 0.7087722292602251 0.0
O O 0.6395720918930535 -0.4914026283682341 0.7570805521487766 0.0
Zn Zn 0.7285365925667584 -0.45117745870236353 0.3415267855724546 0.0
_cell_length_a 19.5206
_cell_length_b 17.9856
_cell_length_c 12.6054
_cell_angle_alpha 90.0
_cell_angle_beta 99.0355
_cell_angle_gamma 90.0
_symmetry_space_group_name_H-M         'P 1'
_symmetry_Int_Tables_number            1
loop_
_symmetry_equiv_pos_as_xyz
   'x, y, z'
                         
loop_
_atom_site_label
_atom_site_type_symbol
_atom_site_fract_x 
_atom_site_fract_y
_atom_site_fract_z
_atom_site_charge
C C 0.24070741659981135 0.8921982597454154 0.6002693295343681 0.0
H H 0.2395874165998113 0.9427682597454154 0.585339329534368 0.0
C C 0.24829605823222511 0.8501423012424993 0.5395157879100859 0.0
H H 0.24957605823222512 0.8688123012424994 0.47097578791008593 0.0
C C 0.23608079905898882 0.7736799689754832 0.5362137369107429 0.0
C C 0.2514398559426383 0.7619024839041062 0.6518662655810341 0.0
H H 0.25400985594263836 0.7114724839041061 0.6686262655810341 0.0
C C 0.24821898382571003 0.8091114182765315 0.7211937388264196 0.0
H H 0.24899898382571 0.7919914182765315 0.7909637388264196 0.0
C C 0.34811398393135046 0.9362757998828047 0.9931414553805479 0.0
H H 0.3216939839313504 0.9036457998828048 1.0273114553805478 0.0
C C 0.41198983054309096 0.9525851685457343 1.0273974848511744 0.0
H H 0.4308698305430909 0.9256551685457342 1.0879574848511744 0.0
C C 0.4617373020380575 0.9881485876461458 0.9731688963560097 0.0
C C 0.43097966974344504 1.0312924700471717 0.9028189556408259 0.0
H H 0.4567496697434449 1.0634624700471715 0.8668789556408258 0.0
C C 0.36149568556944583 1.025448033823164 0.8570059503986966 0.0
H H 0.3412756855694458 1.051818033823164 0.7965659503986965 0.0
C C 0.17081045155923236 0.9055866400008774 0.989823690786622 0.0
C C 0.12544613723564285 0.8518941939553961 1.0651882562391457 0.0
C C 0.08615972912232206 0.8033416755713461 1.0187141204830663 0.0
H H 0.08653972912232205 0.789421675571346 0.9476841204830663 0.0
C C 0.04098474958559654 0.759528691695503 1.0851755972074029 0.0
H H 0.015364749585596535 0.7192086916955029 1.0543355972074029 0.0
C C 0.042775302596010374 0.7777607405089029 1.1918480267215692 0.0
C C 0.08263674243267306 0.8304641635503799 1.2186694063259367 0.0
H H 0.07981674243267309 0.8455341635503798 1.288439406325937 0.0
C C 0.1271293807171912 0.8756900845868937 1.1655001272732166 0.0
C C 0.16285468368083175 0.9265643584196749 1.2114013390908447 0.0
C C 0.0022932950506812694 0.7249224107722377 1.246388066785985 0.0
C C -0.053155583632291184 0.6790596169392398 1.17938323834597 0.0
F F -0.09518664371684853 0.7189849759464081 1.1193625908668539 0.0
F F -0.032352837606307465 0.6188290645633728 1.1426136096087867 0.0
F F -0.09213577650635708 0.6522465560287986 1.246572165288691 0.0
N N 0.23382875292987776 0.8718656204162032 0.7067399098635968 0.0
N N 0.3226587699932813 0.9659636543934299 0.9003935424302073 0.0
O O 0.1768575039437944 0.9714807443536019 1.0093441200757618 0.0
O O 0.18882990050187942 0.873654290877178 0.9275933241980555 0.0
O O 0.22596945053124468 0.9377112371275211 1.2189366752552997 0.0
O O 0.14262857347806018 0.9865264527374608 1.2550217777769452 0.0
Zn Zn 0.22224057341430353 0.949879732572999 0.8291561991790376 0.0
C C -0.24613525032885536 0.8898665962829764 -0.11395867479090552 0.0
H H -0.24501525032885538 0.9404365962829763 -0.09902867479090552 0.0
C C -0.236011308270191 0.8518812801235759 -0.031264420073924236 0.0
H H -0.23729130827019104 0.870551280123576 0.03727557992607575 0.0
C C -0.246145775275713 0.7806835426067936 -0.05650833320373767 0.0
C C -0.24930301204562855 0.7487751828211383 -0.16052869741384473 0.0
H H -0.25187301204562856 0.6983451828211383 -0.17728869741384473 0.0
C C -0.23109787667923007 0.8059564122686664 -0.2169812712249958 0.0
H H -0.23187787667923 0.7888364122686664 -0.2867512712249958 0.0
C C -0.35345071776009346 0.942260149864003 -0.47078237812162727 0.0
H H -0.32703071776009346 0.9096301498640031 -0.5049523781216273 0.0
C C -0.42828793133492726 0.9538961937521659 -0.5268546584178901 0.0
H H -0.4471679313349272 0.9269661937521659 -0.5874146584178901 0.0
C C -0.459529610384712 0.9978294762553095 -0.4725173050666329 0.0
C C -0.430856397880912 1.0379982280934208 -0.3825837418263766 0.0
H H -0.4566263978809119 1.0701682280934206 -0.3466437418263767 0.0
C C -0.3551372162350087 1.0255638795056108 -0.3523906124468974 0.0
H H -0.33491721623500864 1.051933879505611 -0.29195061244689735 0.0
C C -0.1589212878034118 0.9098284579435977 -0.48409190105666144 0.0
C C -0.12136497121741732 0.8554599267257165 -0.5438508490479058 0.0
C C -0.08081328136003649 0.7883945290292198 -0.5077815262048823 0.0
H H -0.08119328136003647 0.7744745290292199 -0.4367515262048822 0.0
C C -0.047077812887819814 0.7647660946766497 -0.571580184632198 0.0
H H -0.021457812887819814 0.7244460946766497 -0.540740184632198 0.0
C C -0.04970779214065626 0.778763299926706 -0.6826079088886409 0.0
C C -0.07156937660874103 0.8336513951849464 -0.7119805400479464 0.0
H H -0.06874937660874104 0.8487213951849462 -0.7817505400479465 0.0
C C -0.11620137579202505 0.8852219526651722 -0.6579768148351325 0.0
C C -0.16118942291583596 0.9277590970382783 -0.7212391525862689 0.0
C C -0.001066476651686056 0.7215592379954354 -0.7459176774702292 0.0
C C 0.04995571580574644 0.6793940746025927 -0.6922280039194183 0.0
F F 0.09994987550168277 0.72735899461562 -0.6113285778070828 0.0
F F 0.02307885444223607 0.6195488495592472 -0.6267278065473751 0.0
F F 0.1006929044951775 0.6523916588690291 -0.7546286661689817 0.0
N N -0.23818545091155424 0.8865135277722883 -0.20247714584361592 0.0
N N -0.3281605858430786 0.9688061542105063 -0.3999430719715201 0.0
O O -0.16512031594808363 0.9641908608527087 -0.4946558254969422 0.0
O O -0.19433902362050906 0.8633003736537745 -0.41636929420764307 0.0
O O -0.23296057766073383 0.931673318941269 -0.730935066821594 0.0
O O -0.14275141922639714 0.978855463420777 -0.7521222514249712 0.0
Zn Zn -0.21981594140709473 0.9521277529871279 -0.3308705642927716 0.0
C C 0.7356436935772596 1.406017438537912 0.6016832910809536 0.0
H H 0.7345236935772596 1.456587438537912 0.5867532910809536 0.0
C C 0.7462435723244649 1.3495509798803602 0.5277245706577403 0.0
H H 0.7475235723244649 1.3682209798803602 0.4591845706577402 0.0
C C 0.7431084540133902 1.2778933757265112 0.5404469252644671 0.0
C C 0.7455751007647998 1.2586024594587217 0.6416500862458729 0.0
H H 0.7481451007647998 1.208172459458722 0.658410086245873 0.0
C C 0.7327234772566371 1.3028025227908882 0.7130230982849851 0.0
H H 0.733503477256637 1.2856825227908881 0.7827930982849851 0.0
C C 0.8483534306491204 1.439258958029375 0.9930750868801831 0.0
H H 0.8219334306491204 1.406628958029375 1.027245086880183 0.0
C C 0.9119080961334493 1.4499573994884594 1.0166419300506662 0.0
H H 0.9307880961334494 1.4230273994884595 1.0772019300506661 0.0
C C 0.9662728752729074 1.491350027954499 0.9772356664619418 0.0
C C 0.9218792258326347 1.5296330295393599 0.876509300440811 0.0
H H 0.9476492258326348 1.56180302953936 0.8405693004408109 0.0
C C 0.8582582915376697 1.5154935432871435 0.8607301994266421 0.0
H H 0.8380382915376696 1.5418635432871433 0.8002901994266419 0.0
C C 0.6729027633090089 1.4044816993453935 0.9912915095141458 0.0
C C 0.6287685274800087 1.363421049156126 1.060993717029332 0.0
C C 0.5763228220653557 1.2955218298909237 1.0019204173166334 0.0
H H 0.5767028220653555 1.281601829890924 0.9308904173166334 0.0
C C 0.5411365916519704 1.2499619645575233 1.0715270670699282 0.0
H H 0.5155165916519704 1.2096419645575236 1.0406870670699282 0.0
C C 0.5391398026820405 1.2695671482462187 1.1771110039249901 0.0
C C 0.575604774302975 1.3378445819557676 1.232070986357512 0.0
H H 0.5727847743029749 1.3529145819557675 1.3018409863575124 0.0
C C 0.6218723701532897 1.3807076032254186 1.162116809973914 0.0
C C 0.6744722183647842 1.4398308776947157 1.21776153620589 0.0
C C 0.49538668734469743 1.2375196392747296 1.256272889222318 0.0
C C 0.4426651229761705 1.1778618450241258 1.1913888637529475 0.0
F F 0.4047540615059175 1.217016993338852 1.116783888242079 0.0
F F 0.4764475470934 1.1173881986724479 1.1428101449675487 0.0
F F 0.4112826293785872 1.1582190122022737 1.2514730123989541 0.0
N N 0.7355027193733882 1.373902658716138 0.7079922854910939 0.0
N N 0.8219065364447357 1.483739565673332 0.8995751638612854 0.0
O O 0.6643243684405378 1.4713806701186192 0.9874225596159164 0.0
O O 0.6931966107164129 1.3629868872347217 0.9129531973931649 0.0
O O 0.7237363281835804 1.4270438802917185 1.2185982078159987 0.0
O O 0.6406050853425719 1.482609598242694 1.2583829749524211 0.0
Zn Zn 0.7192925891631331 1.4426626639239388 0.8286333509820647 0.0
C C 0.2579456998822865 1.3955990285087874 -0.11503090655734874 0.0
H H 0.25906569988228656 1.4461690285087871 -0.10010090655734875 0.0
C C 0.2572667988837996 1.348962523042483 -0.026773074838723668 0.0
H H 0.25598679888379966 1.367632523042483 0.041766925161276315 0.0
C C 0.2534377764932492 1.2838667330765647 -0.03969284629771401 0.0
C C 0.2480354201496452 1.2473496418003274 -0.15126211850642513 0.0
H H 0.2454654201496451 1.1969196418003274 -0.1680221185064251 0.0
C C 0.25170343659679134 1.3071664392419768 -0.2318431237558753 0.0
H H 0.25092343659679134 1.2900464392419768 -0.3016131237558753 0.0
C C 0.15308002349722646 1.4331952270845838 -0.4889409241051668 0.0
H H 0.17950002349722646 1.4005652270845836 -0.5231109241051668 0.0
C C 0.08088087180966665 1.4447238148077723 -0.5206586501719599 0.0
H H 0.06200087180966664 1.4177938148077724 -0.5812186501719598 0.0
C C 0.03036353171713999 1.4925797745985228 -0.4728268616213324 0.0
C C 0.07647557461815468 1.5340666018487348 -0.38268231314745305 0.0
H H 0.05070557461815467 1.5662366018487348 -0.3467423131474531 0.0
C C 0.141989640077974 1.523960707816321 -0.3476293469351107 0.0
H H 0.16220964007797403 1.550330707816321 -0.28718934693511067 0.0
C C 0.32677232893741504 1.4038524032571231 -0.49861888915587826 0.0
C C 0.36913374648491465 1.3620508735064798 -0.5582214448879462 0.0
C C 0.42145610040853637 1.2985286304635892 -0.5109190741340528 0.0
H H 0.42107610040853644 1.2846086304635895 -0.43988907413405276 0.0
C C 0.45177019894802717 1.2512474212925258 -0.5844166362141922 0.0
H H 0.47739019894802714 1.2109274212925258 -0.5535766362141922 0.0
C C 0.4580668069865554 1.283884449165811 -0.6771930630540424 0.0
C C 0.4292124120392956 1.3437021539871896 -0.7227678336817533 0.0
H H 0.4320324120392954 1.3587721539871895 -0.7925378336817535 0.0
C C 0.3785040749962764 1.3787092878169764 -0.6481480938191576 0.0
C C 0.3276277238477768 1.4419751826378557 -0.7074958454163405 0.0
C C 0.49062590407567663 1.2280350753704807 -0.7605870735926642 0.0
C C 0.5534278992431493 1.1868736732357612 -0.698707426409364 0.0
F F 0.5920898715868874 1.2260321365044513 -0.5999885187519721 0.0
F F 0.531568380305896 1.1301118496756273 -0.6461594581107494 0.0
F F 0.5901420583344673 1.1467163285297957 -0.7571287552203672 0.0
N N 0.2627116867369319 1.386190141432387 -0.20107908539415062 0.0
N N 0.16918852109671625 1.4684543144384423 -0.4036178194435272 0.0
O O 0.32923159996694534 1.4615384108530332 -0.5046703544484507 0.0
O O 0.3047154282178986 1.3702432982231747 -0.4360536196965899 0.0
O O 0.26567882633048606 1.4251136552210064 -0.7211731899129777 0.0
O O 0.3589895520016504 1.4896415310081503 -0.7538712419414431 0.0
Zn Zn 0.2722473552080981 1.4505736156673539 -0.3265501176952882 0.0
C C -0.24589233925014542 -0.8982316901801058 -0.6194348380674983 0.0
H H -0.2447723392501454 -0.9488016901801057 -0.6045048380674983 0.0
C C -0.237660094734621 -0.8409105346774006 -0.5234096240379923 0.0
H H -0.238940094734621 -0.8595805346774008 -0.4548696240379923 0.0
C C -0.23984579787420016 -0.7854833068896582 -0.5394236164440622 0.0
C C -0.24753113515563208 -0.7635147864871993 -0.6550356828342618 0.0
H H -0.2501011351556321 -0.7130847864871992 -0.6717956828342618 0.0
C C -0.23208771685759153 -0.8073180794893199 -0.7267762816167382 0.0
H H -0.2328677168575915 -0.7901980794893199 -0.7965462816167382 0.0
C C -0.3530813906566047 -0.9396185772273266 -0.9827251550966629 0.0
H H -0.3266613906566047 -0.9069885772273267 -1.016895155096663 0.0
C C -0.4269974399009825 -0.9541800643762111 -1.025912961435819 0.0
H H -0.44587743990098244 -0.927250064376211 -1.0864729614358188 0.0
C C -0.4647105041725163 -1.0034087034609784 -0.9719762821508627 0.0
C C -0.438416056797783 -1.0279654376841603 -0.9005512860631544 0.0
H H -0.4641860567977829 -1.06013543768416 -0.8646112860631543 0.0
C C -0.3624865093134942 -1.021961361621711 -0.8578642854045617 0.0
H H -0.3422665093134941 -1.0483313616217111 -0.7974242854045617 0.0
C C -0.1619959044911471 -0.9063652003250214 -0.9922343092208923 0.0
C C -0.11950933848734457 -0.8590009406853303 -1.0411371164382694 0.0
C C -0.08680949886269079 -0.789484583754932 -1.0077895361743956 0.0
H H -0.08718949886269078 -0.775564583754932 -0.9367595361743956 0.0
C C -0.03603444178819023 -0.764683878926668 -1.0776191753691788 0.0
H H -0.010414441788190223 -0.7243638789266679 -1.046779175369179 0.0
C C -0.033883150448206174 -0.7794926190339497 -1.1836153540432277 0.0
C C -0.08182064995579559 -0.8410855608846863 -1.2280967157246137 0.0
H H -0.0790006499557956 -0.8561555608846863 -1.2978667157246138 0.0
C C -0.1283629831578544 -0.8808980685831805 -1.1684104118924792 0.0
C C -0.15909543187848968 -0.9325345314410427 -1.212857844235966 0.0
C C 0.005794594716734096 -0.7297345433919954 -1.2341022259807477 0.0
C C 0.05854889999027483 -0.6775091829114552 -1.1841486979443032 0.0
F F 0.09553412450302388 -0.7089582687292222 -1.1096567340288865 0.0
F F 0.028168288805440752 -0.6175203990099629 -1.123365887109177 0.0
F F 0.0936512000000822 -0.643243280656986 -1.2483660789359896 0.0
N N -0.24201457529868267 -0.8723582594783864 -0.7048554514396957 0.0
N N -0.3210217924562263 -0.9780338874816161 -0.9042974645174204 0.0
O O -0.1784844608562098 -0.971560409151034 -1.009562126063608 0.0
O O -0.18504045961287366 -0.8720657615279566 -0.922184344907025 0.0
O O -0.22511588792563209 -0.9356011757513853 -1.212854482052737 0.0
O O -0.14401781458391621 -0.9882740149949009 -1.2561397800275478 0.0
Zn Zn -0.2189307128172859 -0.9563730963370448 -0.837685984632763 0.0
C C 0.24085924275704976 -0.9047695946687626 0.10908218664465744 0.0
H H 0.23973924275704975 -0.9553395946687625 0.09415218664465744 0.0
C C 0.2471295987861223 -0.8542785129122462 0.025246944688571568 0.0
H H 0.24840959878612232 -0.8729485129122463 -0.043293055311428415 0.0
C C 0.24031165967211926 -0.7755314496897315 0.03915757384891984 0.0
C C 0.24695371437955943 -0.7476360433103391 0.1586274963630992 0.0
H H 0.24952371437955936 -0.6972060433103391 0.1753874963630992 0.0
C C 0.23757160949931963 -0.8058330333956222 0.21186597836211765 0.0
H H 0.23835160949931958 -0.7887130333956222 0.2816359783621176 0.0
C C 0.34776018207146064 -0.9400348327428747 0.4886490065097718 0.0
H H 0.3213401820714606 -0.9074048327428748 0.5228190065097719 0.0
C C 0.41714244582030896 -0.947912023845073 0.5141356188965198 0.0
H H 0.4360224458203089 -0.920982023845073 0.5746956188965198 0.0
C C 0.4597901942428682 -0.9915332655217369 0.47060073928747326 0.0
C C 0.4358463834216721 -1.0322863995622749 0.39559381713371095 0.0
H H 0.46161638342167194 -1.0644563995622747 0.35965381713371103 0.0
C C 0.3570469997438869 -1.010869713483265 0.3526028893387129 0.0
H H 0.33682699974388686 -1.0372397134832652 0.2921628893387128 0.0
C C 0.1691554827575397 -0.9120810639419613 0.49353535382969355 0.0
C C 0.1328676231432665 -0.8618335282666993 0.5590816427408737 0.0
C C 0.07974586808667852 -0.7890017681456676 0.5108918716541044 0.0
H H 0.0801258680866785 -0.7750817681456676 0.43986187165410434 0.0
C C 0.03668378078080536 -0.7492717600934186 0.5720640999658471 0.0
H H 0.011063780780805357 -0.7089517600934185 0.5412240999658471 0.0
C C 0.04223318939293565 -0.7722551678011108 0.6789090056975534 0.0
C C 0.07260836174329752 -0.8370942649059572 0.7200466337538044 0.0
H H 0.06978836174329753 -0.8521642649059571 0.7898166337538045 0.0
C C 0.11814391263897457 -0.8771315518224221 0.6611399098397608 0.0
C C 0.16889178400061955 -0.9278478072124147 0.7153365553165407 0.0
C C -0.007973097701294521 -0.7286183466503529 0.7505826638399337 0.0
C C -0.05168732989294999 -0.6876976802312567 0.6947208134575473 0.0
F F -0.08913054983103019 -0.712936325380842 0.6125293709585337 0.0
F F -0.019576761147627023 -0.6305632630891722 0.6398492124712947 0.0
F F -0.09558627280870186 -0.6485404265508106 0.7602415440870268 0.0
N N 0.23696739663902056 -0.875833721526074 0.21192640011514335 0.0
N N 0.3211796131851879 -0.9784706616919174 0.3860264130156621 0.0
O O 0.16348074209939828 -0.972046194827808 0.4907366149475654 0.0
O O 0.18725388051167094 -0.8608181174862894 0.42766452975769054 0.0
O O 0.21923555173713935 -0.926913913394889 0.7118892607545333 0.0
O O 0.14862785922707974 -0.9798866928429673 0.7651758778864691 0.0
Zn Zn 0.2202701047207265 -0.9430531496530532 0.329622965020904 0.0
C C 0.25963530533626916 -0.38929761481961683 -0.6027734168988091 0.0
H H 0.26075530533626906 -0.4398676148196167 -0.5878434168988091 0.0
C C 0.24781651603790764 -0.3474087276259942 -0.5307852377619666 0.0
H H 0.24653651603790774 -0.36607872762599425 -0.46224523776196663 0.0
C C 0.25621290901003335 -0.28654670369910457 -0.5413296958459174 0.0
C C 0.2541216569496912 -0.2626879834070283 -0.6409113230152237 0.0
H H 0.2515516569496911 -0.21225798340702834 -0.6576713230152238 0.0
C C 0.2569101127773727 -0.31287739951234184 -0.7160003670198875 0.0
H H 0.25613011277737263 -0.2957573995123418 -0.7857703670198875 0.0
C C 0.15274372954565388 -0.4441170870905492 -0.9738788042369791 0.0
H H 0.1791637295456539 -0.41148708709054926 -1.008048804236979 0.0
C C 0.07996814104998154 -0.4538275537538451 -1.0367155802009664 0.0
H H 0.061088141049981545 -0.42689755375384514 -1.0972755802009664 0.0
C C 0.03778262947547994 -0.49076012725394436 -0.9738456992619816 0.0
C C 0.06752541174652604 -0.5256806434448704 -0.8867808516443546 0.0
H H 0.04175541174652604 -0.5578506434448701 -0.8508408516443545 0.0
C C 0.13850905238649813 -0.5150088258102054 -0.848045840594831 0.0
H H 0.1587290523864982 -0.5413788258102054 -0.787605840594831 0.0
C C 0.33166142052465336 -0.4086488468118 -0.9948682819831293 0.0
C C 0.3715943532455017 -0.3577344896271442 -1.0497323911304444 0.0
C C 0.4183302996571737 -0.2982146017080566 -1.0052499963945083 0.0
H H 0.41795029965717373 -0.28429460170805665 -0.9342199963945083 0.0
C C 0.4569879296109537 -0.2533530549189764 -1.0753062927552879 0.0
H H 0.48260792961095367 -0.21303305491897642 -1.0444662927552881 0.0
C C 0.4583221487848838 -0.28374027119086087 -1.1812810750732115 0.0
C C 0.41860892364308316 -0.33288952829470747 -1.210388403017298 0.0
H H 0.42142892364308315 -0.34795952829470744 -1.2801584030172983 0.0
C C 0.37341002280275726 -0.37093448251166344 -1.1635458405300363 0.0
C C 0.3334105567082648 -0.4352152869315809 -1.216260966430245 0.0
C C 0.5034683770533254 -0.22535742124198488 -1.258739835631785 0.0
C C 0.555196218535858 -0.17161075689829297 -1.17794769715185 0.0
F F 0.5899791805004236 -0.21614490331138478 -1.110017211641338 0.0
F F 0.5241807887245864 -0.12846753394873725 -1.129605705687868 0.0
F F 0.5929014072914593 -0.1436402731006775 -1.2475733448547206 0.0
N N 0.26357932663809186 -0.37919800836219114 -0.7018525941826202 0.0
N N 0.17816159815746052 -0.4724092431264006 -0.8838521016324234 0.0
O O 0.3213869044012705 -0.46697556800020923 -1.009207458277297 0.0
O O 0.3142543092930509 -0.37448410783620995 -0.9307960662007861 0.0
O O 0.26504314702043796 -0.4355654730540465 -1.2186395992854562 0.0
O O 0.3581472181326644 -0.4805654574647105 -1.2668508077213403 0.0
Zn Zn 0.27273961799569096 -0.44703723920814475 -0.8313084779396407 0.0
C C 0.7425134539183185 -0.4048107711582976 0.10226971480584865 0.0
H H 0.7413934539183186 -0.45538077115829756 0.08733971480584865 0.0
C C 0.7473033827448149 -0.34343105797539014 0.019905499115399287 0.0
H H 0.748583382744815 -0.3621010579753902 -0.048634500884600695 0.0
C C 0.7423643309636624 -0.26736553899041676 0.04166584399695688 0.0
C C 0.7494799549170179 -0.2501943669624644 0.13887901205583741 0.0
H H 0.7520499549170179 -0.19976436696246438 0.1556390120558374 0.0
C C 0.7434051831785736 -0.31640022753034996 0.228597415233282 0.0
H H 0.7441851831785736 -0.29928022753035 0.298367415233282 0.0
C C 0.8522541090291126 -0.4309503968255695 0.4776646430696903 0.0
H H 0.8258341090291125 -0.3983203968255695 0.5118346430696903 0.0
C C 0.9152925170187134 -0.44464550741523656 0.5203153784831661 0.0
H H 0.9341725170187134 -0.41771550741523655 0.5808753784831661 0.0
C C 0.9723382128078052 -0.4926032924806332 0.47947512800737807 0.0
C C 0.9288446030862667 -0.528093714079619 0.3975937060259873 0.0
H H 0.9546146030862669 -0.5602637140796188 0.3616537060259874 0.0
C C 0.858698454178412 -0.5102292679852587 0.3477346174162772 0.0
H H 0.8384784541784119 -0.5365992679852587 0.28729461741627715 0.0
C C 0.6614369278144827 -0.39910343970643614 0.4953274308632068 0.0
C C 0.6142694978198205 -0.3600660776278995 0.5500696262626018 0.0
C C 0.5871546008229591 -0.3017202937556905 0.5178399529618283 0.0
H H 0.5875346008229589 -0.28780029375569055 0.4468099529618282 0.0
C C 0.5493327604740528 -0.2613352797362501 0.5708114681443335 0.0
H H 0.5237127604740528 -0.22101527973625004 0.5399714681443335 0.0
C C 0.5457142963316497 -0.27550849555856455 0.6884503540435952 0.0
C C 0.5716280666132667 -0.331537860462917 0.71405319133267 0.0
H H 0.5688080666132669 -0.346607860462917 0.7838231913326702 0.0
C C 0.6156579399834773 -0.3768291018663692 0.6570070159007816 0.0
C C 0.6711135984882686 -0.4439702643805759 0.7115452229685145 0.0
C C 0.49313074268459844 -0.23249274227134623 0.7537869069206705 0.0
C C 0.4344357433560225 -0.1779559014993002 0.6817590770168416 0.0
F F 0.40333093440267176 -0.2199118611983081 0.609215639201868 0.0
F F 0.4785384382315054 -0.12390524155456137 0.6472157936012902 0.0
F F 0.40223847536021357 -0.14978861125768866 0.7626431796222631 0.0
N N 0.739764816464575 -0.38238457738508536 0.20974213526479304 0.0
N N 0.8266002457339767 -0.46671306126116985 0.3885853002353864 0.0
O O 0.6657340594940592 -0.47371447258362576 0.49763713934258236 0.0
O O 0.6921437113853621 -0.36544025991426804 0.424308112244551 0.0
O O 0.7331006156911287 -0.42736392723953354 0.7187707323823318 0.0
O O 0.6402777861661798 -0.4813389413084026 0.7689725989831326 0.0
Zn Zn 0.7244262790550255 -0.443579829022314 0.32749596491379007 0.0
