_cell_length_a 19.5206
_cell_length_b 17.9856
_cell_length_c 12.6054
_cell_angle_alpha 90.0
_cell_angle_beta 99.0355
_cell_angle_gamma 90.0
_symmetry_space_group_name_H-M         'P 1'
_symmetry_Int_Tables_number            1
loop_
_symmetry_equiv_pos_as_xyz
   'x, y, z'
                         
loop_
_atom_site_label
_atom_site_type_symbol
_atom_site_fract_x 
_atom_site_fract_y
_atom_site_fract_z
_atom_site_charge
C C 0.24110076174123357 0.901682739104272 0.5965599030387585 0.0
H H 0.23998076174123353 0.9522527391042719 0.5816299030387585 0.0
C C 0.23802391962277286 0.8542064611446302 0.52254513285466 0.0
H H 0.23930391962277286 0.8728764611446304 0.45400513285466004 0.0
C C 0.24040241653812133 0.774676743400729 0.5475440610894554 0.0
C C 0.24823681310088958 0.7477068076137906 0.6510631705683587 0.0
H H 0.2508068131008896 0.6972768076137905 0.6678231705683587 0.0
C C 0.24507651801852973 0.8017160764236398 0.7381700631931266 0.0
H H 0.24585651801852967 0.7845960764236398 0.8079400631931266 0.0
C C 0.3537959279480071 0.9354880607508386 0.9793845981149409 0.0
H H 0.3273759279480071 0.9028580607508387 1.013554598114941 0.0
C C 0.41169385923995905 0.9471828512688865 1.0173628522303866 0.0
H H 0.430573859239959 0.9202528512688865 1.0779228522303865 0.0
C C 0.4602710148436952 0.986393754249598 0.9878112968619425 0.0
C C 0.424827476065564 1.0283951521065469 0.8783891952747792 0.0
H H 0.4505974760655639 1.0605651521065467 0.8424491952747791 0.0
C C 0.36072890457902135 1.0298759621147173 0.8551774423331353 0.0
H H 0.3405089045790213 1.0562459621147176 0.7947374423331351 0.0
C C 0.15577153055833642 0.9090433490761974 0.9795909077359437 0.0
C C 0.12036139005723814 0.8635617751787393 1.0516483344280902 0.0
C C 0.08289541432478435 0.8049008493182213 0.9985470318071024 0.0
H H 0.08327541432478433 0.7909808493182212 0.9275170318071023 0.0
C C 0.03220287013277389 0.7655521750697479 1.065206789687276 0.0
H H 0.006582870132773884 0.7252321750697479 1.0343667896872761 0.0
C C 0.03903705866639281 0.7809240859501088 1.166425092346911 0.0
C C 0.08255981961476438 0.8418020400487767 1.2159297583267743 0.0
H H 0.07973981961476441 0.8568720400487766 1.2856997583267746 0.0
C C 0.1240860262992082 0.8678956119202398 1.168530514858648 0.0
C C 0.16986565076501173 0.9429562174616007 1.2077531952760017 0.0
C C 0.006142276505295174 0.725156527740711 1.2584876808256276 0.0
C C -0.04863359058644164 0.6838587036968716 1.1858076034277185 0.0
F F -0.09334477396360352 0.7136390306072186 1.1214502001968143 0.0
F F -0.035157501557099596 0.6300319920096096 1.1277483331607288 0.0
F F -0.0987660380312516 0.6570006977564528 1.2383504842721906 0.0
N N 0.23307321116925375 0.8870932297673039 0.7040692242544443 0.0
N N 0.3252612275303214 0.9714865761400865 0.8857578453655639 0.0
O O 0.17672317039320484 0.9702846128133411 1.0042589856890312 0.0
O O 0.19332571406230198 0.8681281373757428 0.9248319424063697 0.0
O O 0.23035607461838895 0.9347554233202253 1.2161282986829531 0.0
O O 0.1485379627497617 0.9856775837763073 1.2723820540789255 0.0
Zn Zn 0.2156932850427647 0.9490415439883905 0.821930288379459 0.0
C C -0.2491597372062513 0.8966950079449985 -0.11558557300379046 0.0
H H -0.2480397372062513 0.9472650079449985 -0.10065557300379047 0.0
C C -0.24130720834308575 0.8561751650032726 -0.02799602231437133 0.0
H H -0.24258720834308578 0.8748451650032727 0.04054397768562865 0.0
C C -0.24404235586764864 0.77895621468784 -0.030203556773273806 0.0
C C -0.24307799256394658 0.7468455489653549 -0.13171933627269253 0.0
H H -0.24564799256394654 0.696415548965355 -0.1484793362726925 0.0
C C -0.2367950514330769 0.8028577164769611 -0.21275084882707887 0.0
H H -0.23757505143307683 0.7857377164769611 -0.28252084882707884 0.0
C C -0.3537451543301142 0.9345398980199264 -0.4736994733301205 0.0
H H -0.3273251543301142 0.9019098980199266 -0.5078694733301206 0.0
C C -0.4253361264345082 0.9490228028923452 -0.5320349305159804 0.0
H H -0.44421612643450814 0.9220928028923452 -0.5925949305159803 0.0
C C -0.46164266446971824 0.9943186873241104 -0.47792909857599225 0.0
C C -0.4324346932359544 1.025259081429017 -0.3821154744805598 0.0
H H -0.45820469323595425 1.0574290814290168 -0.34617547448055985 0.0
C C -0.36207795483726674 1.020358138084413 -0.3615157320523186 0.0
H H -0.3418579548372667 1.046728138084413 -0.3010757320523185 0.0
C C -0.16530357114676913 0.9028537938735803 -0.48444516444739205 0.0
C C -0.13165894843040996 0.8646136803736305 -0.559786484567555 0.0
C C -0.08531311534223937 0.8041202346226431 -0.5142138249749044 0.0
H H -0.08569311534223935 0.7902002346226432 -0.44318382497490433 0.0
C C -0.04051974561714244 0.7573532562769026 -0.5858412264653711 0.0
H H -0.01489974561714244 0.7170332562769026 -0.555001226465371 0.0
C C -0.045099644670959914 0.7803499257002946 -0.6786227484924481 0.0
C C -0.06613086064074265 0.8377687236158188 -0.7143726778442222 0.0
H H -0.06331086064074268 0.8528387236158186 -0.7841426778442223 0.0
C C -0.11482110136959497 0.8711111479317815 -0.663241175338262 0.0
C C -0.1671592103370843 0.9359220503759332 -0.7141805740630894 0.0
C C -0.006243597066631353 0.7228373601946515 -0.7478345959304739 0.0
C C 0.05320135620915321 0.6732194073167659 -0.682570094180163 0.0
F F 0.09621239002188191 0.7139690407477912 -0.5987458139674813 0.0
F F 0.032379181507907806 0.6198632150862146 -0.6206557808367988 0.0
F F 0.10114680556197457 0.653027121997234 -0.7547948425984105 0.0
N N -0.23818100716706064 0.8884576516888186 -0.21414943857996804 0.0
N N -0.32596637378186805 0.9741607888366317 -0.3927338950604494 0.0
O O -0.17840013067258872 0.9788864072288379 -0.5071312720969869 0.0
O O -0.18683660828547305 0.8628616872507121 -0.4219639415217899 0.0
O O -0.22442235165661684 0.9368356858940443 -0.7138171242915938 0.0
O O -0.13591645600580002 0.9795317505693207 -0.7520243879279677 0.0
Zn Zn -0.21757336494060345 0.944730263860651 -0.3240605727385662 0.0
C C 0.74816125328209 1.4022943720944772 0.6121660986486255 0.0
H H 0.7470412532820899 1.4528643720944772 0.5972360986486255 0.0
C C 0.7408736499057369 1.345157027806784 0.5360758259666915 0.0
H H 0.7421536499057368 1.3638270278067839 0.46753582596669147 0.0
C C 0.7427168713611854 1.2751814186730206 0.5297985104078795 0.0
C C 0.7516550813757282 1.244075497407263 0.6577742934381611 0.0
H H 0.7542250813757281 1.193645497407263 0.6745342934381612 0.0
C C 0.7416571889074737 1.3041831573458045 0.7355853173380351 0.0
H H 0.7424371889074736 1.2870631573458042 0.8053553173380352 0.0
C C 0.8529226535957206 1.4453779295418858 0.9863156875974143 0.0
H H 0.8265026535957205 1.4127479295418857 1.0204856875974142 0.0
C C 0.9275171288414764 1.4411938652147291 1.039412286322048 0.0
H H 0.9463971288414763 1.4142638652147295 1.099972286322048 0.0
C C 0.9691754831079239 1.4979037970028375 0.9715415000037588 0.0
C C 0.9226545500216514 1.5287173450620637 0.8887988814199709 0.0
H H 0.9484245500216516 1.5608873450620637 0.8528588814199708 0.0
C C 0.8645928712415575 1.520675512248809 0.8476041679035781 0.0
H H 0.8443728712415574 1.5470455122488087 0.787164167903578 0.0
C C 0.6552869376738795 1.4055248514031113 0.9713506249841166 0.0
C C 0.6273264202585803 1.350227453151044 1.0602228721071263 0.0
C C 0.5835065081385824 1.2986828692953374 1.0085249880976421 0.0
H H 0.5838865081385823 1.2847628692953377 0.9374949880976422 0.0
C C 0.5353608825708668 1.2570992970004757 1.0644579300426118 0.0
H H 0.5097408825708669 1.2167792970004758 1.0336179300426118 0.0
C C 0.5350057593437464 1.2738753801693186 1.1808092713513747 0.0
C C 0.5731894107442456 1.343070375058279 1.2134388041558843 0.0
H H 0.5703694107442456 1.358140375058279 1.2832088041558847 0.0
C C 0.6215581412132913 1.3683478453145932 1.1690269787443583 0.0
C C 0.660529357009893 1.4364569810062489 1.2175324027162229 0.0
C C 0.4959728363506171 1.2395295413224543 1.2425292761058362 0.0
C C 0.4436595135245051 1.1762787005808484 1.176216149644579 0.0
F F 0.40117416876833856 1.2211471615221519 1.1162171043337 0.0
F F 0.46859777223002375 1.1335104895898174 1.1400894047302372 0.0
F F 0.40352408552287 1.1567163356797983 1.2443505267694404 0.0
N N 0.7319854766297587 1.387601534719162 0.7036311622709446 0.0
N N 0.8291199683939285 1.4670068042283018 0.9107047068630245 0.0
O O 0.6801057753031078 1.4647200865513053 1.0058394049113843 0.0
O O 0.6872393490604748 1.3629287802690384 0.9226887149328334 0.0
O O 0.7289971276427379 1.425039190213003 1.2187984709815685 0.0
O O 0.6364955672788792 1.4908496829463878 1.2671842162598275 0.0
Zn Zn 0.7284776125071792 1.4552486724771363 0.8229264083264528 0.0
C C 0.2643001892181989 1.3981398198150565 -0.10159771990995003 0.0
H H 0.2654201892181989 1.4487098198150565 -0.08666771990995004 0.0
C C 0.24834572187051787 1.3565055627174283 -0.03160443553899661 0.0
H H 0.24706572187051792 1.3751755627174282 0.03693556446100337 0.0
C C 0.25740208722276153 1.2695831292387683 -0.045280097495715335 0.0
C C 0.24811261452461386 1.262414331522667 -0.15240151632400917 0.0
H H 0.24554261452461376 1.211984331522667 -0.16916151632400914 0.0
C C 0.26379834435537297 1.2965488710813822 -0.2181160326244043 0.0
H H 0.2630183443553729 1.2794288710813821 -0.28788603262440426 0.0
C C 0.1495742004834862 1.4407306298403866 -0.4856421265577618 0.0
H H 0.17599420048348624 1.4081006298403866 -0.5198121265577619 0.0
C C 0.07686570308143982 1.4552799599778374 -0.5340865725662731 0.0
H H 0.05798570308143982 1.4283499599778375 -0.5946465725662731 0.0
C C 0.030466757960635332 1.490898949873543 -0.48722208140129547 0.0
C C 0.07026005514325745 1.5311257382724965 -0.3864940057900899 0.0
H H 0.04449005514325744 1.5632957382724966 -0.35055400579009 0.0
C C 0.13990337211920947 1.513600013070848 -0.3416659343863637 0.0
H H 0.16012337211920952 1.539970013070848 -0.2812259343863636 0.0
C C 0.331957424645583 1.3947222654818425 -0.48914111408571265 0.0
C C 0.3693492713908881 1.3533384128995882 -0.5497901977129978 0.0
C C 0.41029724843887194 1.307024498670586 -0.5253864926942762 0.0
H H 0.409917248438872 1.2931044986705862 -0.4543564926942761 0.0
C C 0.4566037607246976 1.2478066556783565 -0.5737740901091147 0.0
H H 0.4822237607246976 1.2074866556783566 -0.5429340901091148 0.0
C C 0.46463207813509594 1.283071093355082 -0.6868682060783784 0.0
C C 0.4250489869522582 1.3454061554753152 -0.7252039593789279 0.0
H H 0.427868986952258 1.360476155475315 -0.794973959378928 0.0
C C 0.3873406048765473 1.3699004956111607 -0.6469476270314141 0.0
C C 0.33908662276680507 1.425824657374332 -0.7052672635477792 0.0
C C 0.4919548242473659 1.2303655870567747 -0.7454182708614626 0.0
C C 0.5604316838905776 1.1735994571670265 -0.6894814918693684 0.0
F F 0.5997090231549422 1.2216440510318038 -0.6098980397214578 0.0
F F 0.5231927740466807 1.1295334934226946 -0.6443941516455185 0.0
F F 0.5958971662937154 1.1579704109958764 -0.7584373989467568 0.0
N N 0.26389015745444605 1.3756531281153594 -0.20619825087619006 0.0
N N 0.17020528928733733 1.4763211567789227 -0.4095304219624785 0.0
O O 0.3209684023636482 1.4683677167349203 -0.5072465242766244 0.0
O O 0.3126037429731294 1.3645988120332055 -0.42786297457181177 0.0
O O 0.2715281167975903 1.4435126358788688 -0.719522458573241 0.0
O O 0.3526845257862655 1.4869964917181953 -0.7590763464870893 0.0
Zn Zn 0.28587223314027366 1.4500602545517702 -0.328589708879204 0.0
C C -0.2364650740166132 -0.892680441061485 -0.6080310244237171 0.0
H H -0.2353450740166132 -0.943250441061485 -0.5931010244237171 0.0
C C -0.23664173316531129 -0.8579366809419966 -0.5231041380082794 0.0
H H -0.2379217331653113 -0.8766066809419967 -0.4545641380082794 0.0
C C -0.24557079313226668 -0.7848068061826753 -0.5426849837233 0.0
C C -0.24778700733866058 -0.7464326971996736 -0.6487985829988798 0.0
H H -0.25035700733866056 -0.6960026971996737 -0.6655585829988798 0.0
C C -0.2391874953342304 -0.8130812980808292 -0.7174643432516721 0.0
H H -0.2399674953342304 -0.7959612980808292 -0.7872343432516721 0.0
C C -0.363167217010564 -0.9343988489136088 -0.989101111002675 0.0
H H -0.336747217010564 -0.901768848913609 -1.0232711110026749 0.0
C C -0.4243399941850569 -0.9386850671494722 -1.030548824072141 0.0
H H -0.4432199941850568 -0.9117550671494722 -1.0911088240721407 0.0
C C -0.4587155288955507 -0.9959060575575498 -0.9668635096619771 0.0
C C -0.4337994445679216 -1.0377899952050413 -0.8936880520310633 0.0
H H -0.4595694445679215 -1.069959995205041 -0.8577480520310632 0.0
C C -0.3689877040394917 -1.0212611821090365 -0.8566432245223586 0.0
H H -0.3487677040394917 -1.0476311821090365 -0.7962032245223585 0.0
C C -0.1678882645786443 -0.8991031676745631 -0.9972540742298314 0.0
C C -0.12012655077819204 -0.859543351632219 -1.058477095776773 0.0
C C -0.08605041536590757 -0.796572541038869 -1.0013683807069744 0.0
H H -0.08643041536590756 -0.7826525410388689 -0.9303383807069745 0.0
C C -0.04641513570903938 -0.7619687644852915 -1.083870798447064 0.0
H H -0.02079513570903938 -0.7216487644852915 -1.053030798447064 0.0
C C -0.0484695501116641 -0.7796142527476947 -1.176774386528148 0.0
C C -0.07197712540344933 -0.8392474650768162 -1.2243357607810623 0.0
H H -0.06915712540344937 -0.8543174650768162 -1.2941057607810629 0.0
C C -0.11482966420147551 -0.8873583170862038 -1.1593757202011705 0.0
C C -0.17636512978045182 -0.937387641395757 -1.219477036627995 0.0
C C 0.0071363000828951915 -0.7317184235042696 -1.2428704090948688 0.0
C C 0.048745435568950966 -0.6765708815378477 -1.1798468777011137 0.0
F F 0.08839068676908053 -0.7189736777062837 -1.1225771539736031 0.0
F F 0.033005155303632204 -0.619937755707635 -1.139691475552407 0.0
F F 0.10657727992817131 -0.6562510608477214 -1.2364382174509028 0.0
N N -0.238409108921689 -0.8849165199160748 -0.7094356602806023 0.0
N N -0.3261576695996226 -0.976292537925742 -0.8958092102706592 0.0
O O -0.16859542205327097 -0.9629992589809158 -1.0094479087378105 0.0
O O -0.19001297096466885 -0.8731791783116326 -0.9164654624118403 0.0
O O -0.22638477690528946 -0.9252881189692387 -1.2084304673004995 0.0
O O -0.1503376685861571 -0.99011794685689 -1.2587493798257738 0.0
Zn Zn -0.22636004074708607 -0.9492450271769808 -0.8184656877859278 0.0
C C 0.23536948030511995 -0.9026043568502283 0.10039669784281455 0.0
H H 0.23424948030511994 -0.9531743568502282 0.08546669784281455 0.0
C C 0.2531120620775406 -0.851024955530662 0.02969994183495259 0.0
H H 0.25439206207754056 -0.8696949555306621 -0.038840058165047396 0.0
C C 0.24243278638006646 -0.7763182789717845 0.0525879383080033 0.0
C C 0.238147395244576 -0.7507788417375444 0.15148585887625754 0.0
H H 0.24071739524457597 -0.7003488417375444 0.16824585887625754 0.0
C C 0.23350460633795872 -0.8036210297556384 0.21082308834628288 0.0
H H 0.23428460633795867 -0.7865010297556384 0.2805930883462828 0.0
C C 0.350222218410285 -0.9406037357284064 0.48526408790661185 0.0
H H 0.32380221841028495 -0.9079737357284066 0.5194340879066119 0.0
C C 0.42488291132353956 -0.9426818947790224 0.5161130539858432 0.0
H H 0.4437629113235395 -0.9157518947790224 0.5766730539858431 0.0
C C 0.46504441129160534 -0.9875379797303288 0.46759882631745714 0.0
C C 0.4285587737197567 -1.0231484633443324 0.3935851737337107 0.0
H H 0.4543287737197566 -1.055318463344332 0.3576451737337108 0.0
C C 0.3653328439535737 -1.0126849535386462 0.3499038809024063 0.0
H H 0.3451128439535736 -1.0390549535386464 0.2894638809024063 0.0
C C 0.1580482367435275 -0.8965147964976958 0.486133794839162 0.0
C C 0.11776554299935035 -0.8556887564946016 0.5437489776102927 0.0
C C 0.08593245280068311 -0.8015976520203737 0.5152138142190047 0.0
H H 0.08631245280068309 -0.7876776520203738 0.4441838142190046 0.0
C C 0.044963378203696856 -0.7583486988504436 0.5767800754553299 0.0
H H 0.01934337820369686 -0.7180286988504436 0.5459400754553299 0.0
C C 0.04384582761110619 -0.7864476293607834 0.6750241051072507 0.0
C C 0.08578046666017777 -0.837562137425316 0.7242433675839733 0.0
H H 0.08296046666017778 -0.852632137425316 0.7940133675839735 0.0
C C 0.11627324967521364 -0.87899100344363 0.6677918939774861 0.0
C C 0.1615202042896428 -0.9363881101688345 0.7032103280912695 0.0
C C -0.004238891071560897 -0.7331998702368717 0.7398490592718576 0.0
C C -0.045789919982894146 -0.6771676347965894 0.6938066004087337 0.0
F F -0.0916270619656197 -0.7187782966452769 0.6107748302588593 0.0
F F -0.02458162335274072 -0.6229623228792995 0.6363846170276898 0.0
F F -0.08667427342956965 -0.6474466380408556 0.7512414029878239 0.0
N N 0.2337466942812476 -0.8672683499756265 0.21109134546481578 0.0
N N 0.31658481017691115 -0.9754172501080992 0.39127831546803776 0.0
O O 0.18043110791597458 -0.9690862121609077 0.5052086436764531 0.0
O O 0.19918492674205823 -0.8698748379272956 0.4353940383550553 0.0
O O 0.2278976195421638 -0.9339117665960878 0.701413482619963 0.0
O O 0.137344279509286 -0.9818070640229355 0.751022864500547 0.0
Zn Zn 0.22973300551941309 -0.9564569124209898 0.32916678719489306 0.0
C C 0.25831341593091983 -0.4043726902437019 -0.6001704436330416 0.0
H H 0.25943341593091984 -0.45494269024370193 -0.5852404436330416 0.0
C C 0.2599715148237189 -0.3483046526376008 -0.5158682327050007 0.0
H H 0.25869151482371894 -0.3669746526376008 -0.4473282327050008 0.0
C C 0.26321199219957725 -0.2807533458749675 -0.5336453798939282 0.0
C C 0.25675312507604936 -0.24472355108994184 -0.6451182193514795 0.0
H H 0.2541831250760493 -0.1942935510899418 -0.6618782193514795 0.0
C C 0.256301075404067 -0.30002829322039226 -0.7365538870009652 0.0
H H 0.25552107540406693 -0.28290829322039224 -0.8063238870009652 0.0
C C 0.15226914435820338 -0.44067726421383063 -0.9764881927402637 0.0
H H 0.17868914435820335 -0.40804726421383064 -1.0106581927402636 0.0
C C 0.07648622430284707 -0.4434991520956173 -1.0356813048635023 0.0
H H 0.05760622430284708 -0.4165691520956173 -1.096241304863502 0.0
C C 0.03655985281460419 -0.4993051845900621 -0.9663678403749768 0.0
C C 0.07277077644689535 -0.5388802763135767 -0.8814404304102857 0.0
H H 0.047000776446895355 -0.5710502763135764 -0.8455004304102857 0.0
C C 0.13609401635806398 -0.5313466757611345 -0.8479448094820158 0.0
H H 0.15631401635806402 -0.5577166757611345 -0.7875048094820156 0.0
C C 0.32691101443585635 -0.39427630188535157 -0.9968215304006277 0.0
C C 0.3680677239802408 -0.3560236451919561 -1.0589242698600811 0.0
C C 0.4122932720869977 -0.30311685111341136 -1.017736126118201 0.0
H H 0.41191327208699774 -0.2891968511134114 -0.9467061261182009 0.0
C C 0.46364560891039 -0.2662671531668041 -1.0580986641997197 0.0
H H 0.48926560891038995 -0.2259471531668041 -1.02725866419972 0.0
C C 0.4667344018806993 -0.28210635625625374 -1.1799677515146563 0.0
C C 0.41937172875440676 -0.3291068649398539 -1.230460472936319 0.0
H H 0.4221917287544067 -0.3441768649398539 -1.3002304729363192 0.0
C C 0.39020341108805756 -0.3791279480245516 -1.14981656507396 0.0
C C 0.3363832364013897 -0.4376858892726859 -1.2032431087878421 0.0
C C 0.5030417880572206 -0.24057400620174552 -1.2471173820250372 0.0
C C 0.5489884902008768 -0.1781839935956396 -1.198093888138011 0.0
F F 0.5984284047135269 -0.2269563104575528 -1.1134711862559266 0.0
F F 0.5217938465264349 -0.11758334789371656 -1.1475593179515367 0.0
F F 0.5919279332897472 -0.15228172098558104 -1.2508091755025288 0.0
N N 0.2665237628722553 -0.36789367402317064 -0.7104317242841033 0.0
N N 0.17962843270654172 -0.4676902607810219 -0.903451179692815 0.0
O O 0.3271318015159956 -0.47491081240073213 -0.9907452543112096 0.0
O O 0.312777737129934 -0.36332543850689836 -0.9219008030346958 0.0
O O 0.27183975513487396 -0.43132656966115784 -1.2215501020087616 0.0
O O 0.34880583531290343 -0.4769877352408153 -1.2696036851195054 0.0
Zn Zn 0.27781923869907094 -0.4398807289513991 -0.8362033417220067 0.0
C C 0.7427229271977676 -0.40373818794086347 0.11476151404525854 0.0
H H 0.7416029271977677 -0.4543081879408635 0.09983151404525854 0.0
C C 0.7441542050159953 -0.3494257279961839 0.011911622886211639 0.0
H H 0.7454342050159953 -0.36809572799618395 -0.05662837711378835 0.0
C C 0.7379352611687994 -0.27398968276188596 0.03099899898636976 0.0
C C 0.7403293027797535 -0.24418581192750938 0.13979703213504446 0.0
H H 0.7428993027797535 -0.19375581192750937 0.15655703213504446 0.0
C C 0.735607814930139 -0.3051062600708851 0.22817831008373918 0.0
H H 0.7363878149301389 -0.2879862600708851 0.2979483100837391 0.0
C C 0.8545657172549006 -0.4308403631918834 0.47598778949162934 0.0
H H 0.8281457172549005 -0.3982103631918834 0.5101577894916294 0.0
C C 0.9220971571188276 -0.4456961582466309 0.5129138632681848 0.0
H H 0.9409771571188276 -0.4187661582466309 0.5734738632681847 0.0
C C 0.9666324121524656 -0.49622794833191547 0.47851631054681903 0.0
C C 0.9374145443190772 -0.5375227934650907 0.3853978332387133 0.0
H H 0.9631845443190773 -0.5696927934650905 0.3494578332387134 0.0
C C 0.8605827380750097 -0.5096238306762657 0.33923382375186406 0.0
H H 0.8403627380750098 -0.5359938306762656 0.27879382375186396 0.0
C C 0.6725526100478608 -0.41064708440109804 0.49295819806639013 0.0
C C 0.631925167999016 -0.35967844975911306 0.5499138624799896 0.0
C C 0.5756620156713934 -0.2964203370875165 0.5040742505652596 0.0
H H 0.5760420156713932 -0.28250033708751654 0.4330442505652594 0.0
C C 0.5358727317630793 -0.2491350716906654 0.5640887920254344 0.0
H H 0.5102527317630792 -0.20881507169066543 0.5332487920254344 0.0
C C 0.5332610698521628 -0.284665810851471 0.6731034519633079 0.0
C C 0.5805778128735362 -0.346693909640973 0.7240836098314017 0.0
H H 0.5777578128735363 -0.361763909640973 0.793853609831402 0.0
C C 0.6214990125801414 -0.3716941532064978 0.6572652982013679 0.0
C C 0.664796141607343 -0.44384491431744927 0.7210471050626738 0.0
C C 0.4921813220755489 -0.22626599527905297 0.7372453259332581 0.0
C C 0.45054942009819293 -0.18233273735241137 0.682510139386494 0.0
F F 0.41513598789174166 -0.21846852862663566 0.6096247421890064 0.0
F F 0.4667288192002423 -0.11916665999695218 0.6343560217282703 0.0
F F 0.3997168860101856 -0.14032588737410528 0.7356981380780462 0.0
N N 0.7315574078745031 -0.3808969456717284 0.2038780602128385 0.0
N N 0.8154280112538171 -0.4739801903071667 0.39775973410953364 0.0
O O 0.6700414507927851 -0.4621318030117492 0.501468846823032 0.0
O O 0.6931805200510593 -0.3708478447288131 0.42565252956989247 0.0
O O 0.7281966154405892 -0.42622765039776617 0.72496784270583 0.0
O O 0.6381717715208314 -0.48110034415643815 0.7622130200481543 0.0
Zn Zn 0.7240090990748628 -0.4489589112144434 0.33067050369256384 0.0
_cell_length_a 19.5206
_cell_length_b 17.9856
_cell_length_c 12.6054
_cell_angle_alpha 90.0
_cell_angle_beta 99.0355
_cell_angle_gamma 90.0
_symmetry_space_group_name_H-M         'P 1'
_symmetry_Int_Tables_number            1
loop_
_symmetry_equiv_pos_as_xyz
   'x, y, z'
                         
loop_
_atom_site_label
_atom_site_type_symbol
_atom_site_fract_x 
_atom_site_fract_y
_atom_site_fract_z
_atom_site_charge
C C 0.24873935620718352 0.8949838559395084 0.613763604940142 0.0
H H 0.24761935620718348 0.9455538559395084 0.5988336049401419 0.0
C C 0.2411786401216486 0.8512623349885737 0.5324605814220436 0.0
H H 0.24245864012164858 0.8699323349885739 0.46392058142204357 0.0
C C 0.24486486228517446 0.7740398579101804 0.5559491016336123 0.0
C C 0.24468019486903483 0.7527526625154962 0.6590891238046992 0.0
H H 0.24725019486903485 0.7023226625154962 0.6758491238046992 0.0
C C 0.24525067783528554 0.8021020296006532 0.7250564789393501 0.0
H H 0.24603067783528554 0.7849820296006531 0.7948264789393501 0.0
C C 0.3538661939996485 0.9319698274797792 0.9914046020336621 0.0
H H 0.3274461939996486 0.8993398274797794 1.025574602033662 0.0
C C 0.42718966282437965 0.9488908882268493 1.020478109950473 0.0
H H 0.4460696628243796 0.9219608882268493 1.0810381099504727 0.0
C C 0.46942133979126904 0.9949926360626852 0.976527262651152 0.0
C C 0.4390822107199245 1.0260934250591818 0.9010628771804439 0.0
H H 0.4648522107199244 1.0582634250591816 0.8651228771804438 0.0
C C 0.3636477729136976 1.0274103298828388 0.8396585728397798 0.0
H H 0.3434277729136976 1.0537803298828388 0.7792185728397798 0.0
C C 0.16086439836051633 0.908786920282214 0.970134557880154 0.0
C C 0.12965586736727633 0.8569596616422158 1.0626748051245165 0.0
C C 0.08004862077224097 0.7975005151492167 1.0242981782170157 0.0
H H 0.08042862077224096 0.7835805151492167 0.9532681782170157 0.0
C C 0.04722325440376937 0.7601467088351275 1.0835512168706052 0.0
H H 0.02160325440376937 0.7198267088351274 1.0527112168706054 0.0
C C 0.033557802711079256 0.7841895204611408 1.1691039090122526 0.0
C C 0.069317163213168 0.8359022768707238 1.2090038065319328 0.0
H H 0.06649716321316802 0.8509722768707237 1.278773806531933 0.0
C C 0.12060231498995903 0.8839939240777406 1.1488104584865664 0.0
C C 0.1592158458677925 0.94539210390251 1.207663909318641 0.0
C C 0.0032098381462187407 0.7348804136164349 1.2557152249948633 0.0
C C -0.05509002139346878 0.6809421884710534 1.1864807931575665 0.0
F F -0.097892398826697 0.7182831166706585 1.1025671041225695 0.0
F F -0.03109543893040393 0.6292055018577806 1.12519630442377 0.0
F F -0.08940965918276707 0.6523838659335658 1.2490996232603198 0.0
N N 0.2367915357743987 0.8871794611194243 0.7042420757706203 0.0
N N 0.3294296544904831 0.9724532543478052 0.9044113603557077 0.0
O O 0.17511574421129183 0.9730082553179308 1.0122063107227208 0.0
O O 0.18123302312837494 0.8699517141579902 0.9143114381670838 0.0
O O 0.2358257225444435 0.9268265706540227 1.2229070207381803 0.0
O O 0.13645453711837618 0.97986058369339 1.265937679468646 0.0
Zn Zn 0.22744613115862108 0.9566305913014173 0.8313319981383422 0.0
C C -0.24019624054957156 0.9068046773932273 -0.10446754303147275 0.0
H H -0.23907624054957155 0.9573746773932273 -0.08953754303147275 0.0
C C -0.24954109003272482 0.8574636425866409 -0.02854491324306154 0.0
H H -0.2508210900327248 0.8761336425866411 0.03999508675693844 0.0
C C -0.2375913044606481 0.7777926782885879 -0.03338383143179919 0.0
C C -0.23529431259213668 0.7483481936321412 -0.13586350306762685 0.0
H H -0.23786431259213664 0.6979181936321412 -0.15262350306762684 0.0
C C -0.2396119394196884 0.7969053464342905 -0.22579260918320923 0.0
H H -0.24039193941968837 0.7797853464342904 -0.2955626091832092 0.0
C C -0.352812779521623 0.942427018576139 -0.4831156342527391 0.0
H H -0.326392779521623 0.9097970185761391 -0.5172856342527391 0.0
C C -0.41655369806225484 0.9509450470649834 -0.5314527427259585 0.0
H H -0.4354336980622548 0.9240150470649834 -0.5920127427259585 0.0
C C -0.46440067725133893 0.9903640734420407 -0.4896945095156063 0.0
C C -0.4316637911976698 1.0348058294080797 -0.39217219673180187 0.0
H H -0.4574337911976698 1.0669758294080793 -0.3562321967318019 0.0
C C -0.3666832717168082 1.015411449250503 -0.34775079115475965 0.0
H H -0.3464632717168082 1.041781449250503 -0.2873107911547596 0.0
C C -0.17341414264056712 0.9102113355682593 -0.49517231378225623 0.0
C C -0.12407023024269073 0.865294546362645 -0.5632708218869713 0.0
C C -0.07914699652317476 0.7959465093032693 -0.49859559883232396 0.0
H H -0.07952699652317474 0.7820265093032693 -0.4275655988323239 0.0
C C -0.05116193177950898 0.7607074541308794 -0.5850578514277927 0.0
H H -0.02554193177950898 0.7203874541308792 -0.5542178514277927 0.0
C C -0.03629858644044644 0.7769020499037147 -0.6634310934273527 0.0
C C -0.07005611430292479 0.8319917591275086 -0.705399231075203 0.0
H H -0.0672361143029248 0.8470617591275085 -0.7751692310752032 0.0
C C -0.11219140370651763 0.876547995286889 -0.649370461256632 0.0
C C -0.17569868399645114 0.9391302402022803 -0.7318715567537204 0.0
C C -0.006243603825728779 0.7251894861181035 -0.7534074390492069 0.0
C C 0.06384520132471438 0.6743898759323357 -0.6865937686010043 0.0
F F 0.09824223841280053 0.7179997957478409 -0.6142361688955358 0.0
F F 0.029584255968004215 0.619950943581974 -0.6249592719050098 0.0
F F 0.08722360996034144 0.6551055480015067 -0.7463027343043313 0.0
N N -0.24070640363350324 0.8720077217302978 -0.20782255168051578 0.0
N N -0.3191528938098327 0.9688209470148583 -0.39129973852939676 0.0
O O -0.1692312596541018 0.9660628805554953 -0.4932012953157688 0.0
O O -0.18190298208546038 0.859479168020606 -0.4121688099980334 0.0
O O -0.2277209940456497 0.938514198617748 -0.7074861023053606 0.0
O O -0.1366798305060503 0.9830345281083415 -0.7658934667326195 0.0
Zn Zn -0.22931850398636044 0.9542116786406857 -0.32378830123355845 0.0
C C 0.744244909601487 1.394435498773803 0.6044962598149101 0.0
H H 0.7431249096014869 1.4450054987738028 0.5895662598149101 0.0
C C 0.7476449386761574 1.3591034690190467 0.5243676829925762 0.0
H H 0.7489249386761575 1.3777734690190466 0.4558276829925762 0.0
C C 0.7536786806016212 1.2771498937865136 0.5465401003778426 0.0
C C 0.7387784493932312 1.259810492311183 0.638252458765393 0.0
H H 0.741348449393231 1.209380492311183 0.6550124587653932 0.0
C C 0.7456116519386443 1.2988291934851977 0.7248141056172175 0.0
H H 0.7463916519386442 1.2817091934851974 0.7945841056172175 0.0
C C 0.8524491341205183 1.4467172348029524 0.9792822765827726 0.0
H H 0.8260291341205183 1.4140872348029523 1.0134522765827725 0.0
C C 0.9149335396706323 1.4412859434776957 1.0254118328280906 0.0
H H 0.9338135396706322 1.4143559434776958 1.0859718328280905 0.0
C C 0.9610878609099288 1.499363604311417 0.99042812856414 0.0
C C 0.927161169027922 1.523542303644301 0.8917173227111437 0.0
H H 0.9529311690279221 1.5557123036443008 0.8557773227111436 0.0
C C 0.86232744956621 1.5275032847392709 0.853182738900307 0.0
H H 0.8421074495662099 1.5538732847392707 0.792742738900307 0.0
C C 0.6585275865211184 1.4064363571730583 0.9871148741606565 0.0
C C 0.6222892333783122 1.3670324887316978 1.0567084324908758 0.0
C C 0.5783958870305737 1.2929645007364983 1.0199688666143685 0.0
H H 0.5787758870305736 1.2790445007364986 0.9489388666143684 0.0
C C 0.5359599334028458 1.2618477115592206 1.068116756837116 0.0
H H 0.5103399334028458 1.2215277115592207 1.0372767568371162 0.0
C C 0.5388594188594094 1.2797888391827867 1.1640196779692693 0.0
C C 0.5857731845729208 1.3286821323433222 1.2308387343404779 0.0
H H 0.5829531845729209 1.3437521323433221 1.3006087343404782 0.0
C C 0.6245044166640192 1.3762832242716654 1.14887600771037 0.0
C C 0.6640145868753223 1.4298004731274714 1.227981910983691 0.0
C C 0.4961280592885279 1.229437564051516 1.2491014708842463 0.0
C C 0.4516911780039502 1.1793310447710867 1.1925933695497726 0.0
F F 0.4105894573423934 1.2220891388268462 1.101586867671098 0.0
F F 0.4772482423489378 1.1256508802860152 1.1254542241642291 0.0
F F 0.4069888043983107 1.160434580194983 1.2509627153565839 0.0
N N 0.7403167212554173 1.3856755545266326 0.7118238082367079 0.0
N N 0.8261886066655627 1.4734241471847385 0.8925316650585459 0.0
O O 0.6757114056378852 1.469901541488573 0.9908524834395753 0.0
O O 0.6899757315591022 1.362790043285042 0.9230432950209303 0.0
O O 0.7282642729774909 1.438631685977917 1.2042987939590448 0.0
O O 0.6351592574344805 1.485514715275808 1.2620349662502204 0.0
Zn Zn 0.7205256004601254 1.4483213980152472 0.8328948389048395 0.0
C C 0.2665007346540684 1.3907193756299272 -0.10664903480607982 0.0
H H 0.26762073465406844 1.4412893756299272 -0.09171903480607983 0.0
C C 0.2563905711089132 1.3429780497765402 -0.019227013627032066 0.0
H H 0.2551105711089133 1.3616480497765402 0.04931298637296792 0.0
C C 0.24679065944249087 1.2813262878122071 -0.054530345855508866 0.0
C C 0.2575298729368655 1.2507664323920435 -0.15315187410642997 0.0
H H 0.2549598729368654 1.2003364323920436 -0.16991187410642997 0.0
C C 0.26379103046076574 1.3046526804884235 -0.21358293478418977 0.0
H H 0.2630110304607657 1.2875326804884235 -0.28335293478418977 0.0
C C 0.1426251090793743 1.4315865229334852 -0.48714774106230796 0.0
H H 0.1690451090793743 1.3989565229334853 -0.521317741062308 0.0
C C 0.07989513294458336 1.4377622648538326 -0.5114266888172082 0.0
H H 0.061015132944583335 1.4108322648538327 -0.5719866888172082 0.0
C C 0.03283921882040672 1.4982171149680164 -0.47113622628423324 0.0
C C 0.07709359742595805 1.5337644999211708 -0.388451951618558 0.0
H H 0.051323597425958045 1.5659344999211708 -0.3525119516185581 0.0
C C 0.13710667365887402 1.5249186678878435 -0.3409052082867326 0.0
H H 0.15732667365887407 1.5512886678878435 -0.2804652082867325 0.0
C C 0.33742207497965604 1.400708974297839 -0.48492154198955406 0.0
C C 0.3857821203666123 1.3562918476557488 -0.5434124075046903 0.0
C C 0.4123211232100283 1.309043933530928 -0.519050204065529 0.0
H H 0.41194112321002824 1.2951239335309284 -0.44802020406552895 0.0
C C 0.4607479311384802 1.2587541337992623 -0.5629628407935271 0.0
H H 0.4863679311384802 1.2184341337992624 -0.532122840793527 0.0
C C 0.45308484338715344 1.2772514184317514 -0.6760735080506513 0.0
C C 0.42024353448707635 1.3357377656257068 -0.7309155759889586 0.0
H H 0.4230635344870761 1.3508077656257067 -0.8006855759889588 0.0
C C 0.37979848378756076 1.3725101450616097 -0.6594862430344948 0.0
C C 0.33393252223059444 1.4433908023581015 -0.7292334197216275 0.0
C C 0.5007981390295161 1.21935495945403 -0.7489528944178035 0.0
C C 0.553043316068312 1.1767578073636364 -0.699589816907164 0.0
F F 0.59886259106034 1.21422747588272 -0.6129615513913936 0.0
F F 0.527665571828289 1.122202405183584 -0.6407239902792444 0.0
F F 0.6006565908381242 1.1453654949090808 -0.7335277805333643 0.0
N N 0.26154859017403814 1.3780324416798848 -0.21017741648013008 0.0
N N 0.17525077620666982 1.482857559367051 -0.4044903464867558 0.0
O O 0.3357338721154915 1.4738862670205362 -0.48965882917194825 0.0
O O 0.3147819863860076 1.3666453296157623 -0.42081872618105565 0.0
O O 0.26561179164749404 1.4295806243445857 -0.7240809235454625 0.0
O O 0.3631740042115888 1.487493442636183 -0.7547642547546536 0.0
Zn Zn 0.27477897233883347 1.448102171061213 -0.32853803593265635 0.0
C C -0.2384447287667023 -0.9025333634422714 -0.6179003376257393 0.0
H H -0.23732472876670227 -0.9531033634422713 -0.6029703376257392 0.0
C C -0.23751526245192747 -0.8431247659176356 -0.5291367888409985 0.0
H H -0.23879526245192748 -0.8617947659176358 -0.4605967888409984 0.0
C C -0.24915068840137283 -0.774348129964462 -0.5326760311540619 0.0
C C -0.2420893202013121 -0.7587050342473772 -0.6480018405974631 0.0
H H -0.2446593202013121 -0.7082750342473773 -0.6647618405974631 0.0
C C -0.24908818473613853 -0.8108064443697162 -0.7291992493637001 0.0
H H -0.24986818473613848 -0.7936864443697161 -0.7989692493637001 0.0
C C -0.35098527859936723 -0.9414596178560115 -0.9714603430392028 0.0
H H -0.32456527859936724 -0.9088296178560117 -1.0056303430392028 0.0
C C -0.4193745392161032 -0.9366008935676976 -1.0295777046476382 0.0
H H -0.43825453921610313 -0.9096708935676976 -1.0901377046476382 0.0
C C -0.46442344343693803 -0.9957178562388933 -0.978283299314921 0.0
C C -0.4322577557743769 -1.0387319730823164 -0.8897258914279786 0.0
H H -0.4580277557743768 -1.0709019730823162 -0.8537858914279786 0.0
C C -0.37018452737599905 -1.0168956852700104 -0.8513699420575708 0.0
H H -0.34996452737599903 -1.0432656852700104 -0.7909299420575706 0.0
C C -0.15810750229679263 -0.910885087740941 -0.9734543085718103 0.0
C C -0.12609002487717721 -0.8590190229514264 -1.059822291559664 0.0
C C -0.08870349355776751 -0.7943106084839864 -1.0119291484129898 0.0
H H -0.08908349355776748 -0.7803906084839863 -0.9408991484129898 0.0
C C -0.043099314215142154 -0.7567827745163558 -1.0859880103182387 0.0
H H -0.01747931421514215 -0.7164627745163556 -1.0551480103182387 0.0
C C -0.03518077500660359 -0.7834665749493287 -1.1723655222277167 0.0
C C -0.07473625058227232 -0.8372930339177427 -1.2151260319430983 0.0
H H -0.07191625058227236 -0.8523630339177425 -1.2848960319430986 0.0
C C -0.12348376923506456 -0.8807460795685907 -1.1573596479240384 0.0
C C -0.16581183889898618 -0.9445890598787623 -1.2084793121139439 0.0
C C 0.009669082901520598 -0.7387776965790857 -1.2435926556213794 0.0
C C 0.057365793606887434 -0.6774164361689622 -1.1931162635329136 0.0
F F 0.09392970760180781 -0.7161956729005752 -1.12040278447161 0.0
F F 0.024839969494453055 -0.6220366051453667 -1.1351226720264573 0.0
F F 0.09175004227681463 -0.658077013418926 -1.2411327889958026 0.0
N N -0.23438829233074826 -0.872205755521416 -0.7170933474478828 0.0
N N -0.31838281501964943 -0.9764847849257164 -0.9051456360978444 0.0
O O -0.1668502535793878 -0.9718105596250334 -1.0045765633804062 0.0
O O -0.185673596719447 -0.8612653242719203 -0.9312500376252612 0.0
O O -0.22818727559186913 -0.9233141398019181 -1.223266291672346 0.0
O O -0.1463626869224103 -0.9864336832866751 -1.2559497846596734 0.0
Zn Zn -0.22893525117978494 -0.9525438696856945 -0.8373752272102405 0.0
C C 0.24423261808066069 -0.9030019554948918 0.10246997334279992 0.0
H H 0.24311261808066068 -0.9535719554948917 0.08753997334279992 0.0
C C 0.24007870731580447 -0.843216269804312 0.02400530075011283 0.0
H H 0.2413587073158045 -0.8618862698043122 -0.04453469924988716 0.0
C C 0.24938706450467726 -0.7797523714678285 0.053195501476061426 0.0
C C 0.2541391920679633 -0.7587618160739013 0.14650698838544166 0.0
H H 0.2567091920679633 -0.7083318160739012 0.16326698838544165 0.0
C C 0.24261627692825355 -0.8001335613580551 0.22897861100929337 0.0
H H 0.24339627692825347 -0.783013561358055 0.29874861100929334 0.0
C C 0.3522950218422235 -0.9355345534951758 0.4819273762373589 0.0
H H 0.3258750218422235 -0.902904553495176 0.516097376237359 0.0
C C 0.4203594948826508 -0.9409687902787063 0.5297529840904507 0.0
H H 0.43923949488265074 -0.9140387902787063 0.5903129840904506 0.0
C C 0.46849320191206484 -0.9919793850752237 0.4829766120990439 0.0
C C 0.43618942758807383 -1.0369048400148206 0.3944430130628108 0.0
H H 0.4619594275880738 -1.0690748400148202 0.35850301306281085 0.0
C C 0.36979493782993644 -1.0212249258075607 0.350694052435325 0.0
H H 0.3495749378299364 -1.0475949258075608 0.2902540524353249 0.0
C C 0.15643069991928743 -0.8956915350216292 0.4817357154665197 0.0
C C 0.12924876757497863 -0.8512787038703925 0.5547783949774353 0.0
C C 0.09014191140874903 -0.8016536969943311 0.5246822488569539 0.0
H H 0.090521911408749 -0.7877336969943312 0.4536522488569539 0.0
C C 0.04919642824490811 -0.7622794556861441 0.5797534881836346 0.0
H H 0.023576428244908115 -0.7219594556861441 0.5489134881836346 0.0
C C 0.04142611058050929 -0.7888490499590379 0.687481498709215 0.0
C C 0.06840945367592358 -0.832680675954647 0.7127592434606155 0.0
H H 0.06558945367592359 -0.8477506759546469 0.7825292434606157 0.0
C C 0.11832248534328454 -0.8697888660044688 0.6618540387386793 0.0
C C 0.15917481567901795 -0.9397791757448896 0.7065263050458709 0.0
C C -0.001156811838359599 -0.7368630551040907 0.749792617228296 0.0
C C -0.05161451120076603 -0.6707213678883792 0.6918483240445938 0.0
F F -0.08926495818851424 -0.7144876128935453 0.604480441611374 0.0
F F -0.02551320774232183 -0.6185472167118984 0.6354001662343415 0.0
F F -0.09236274397412692 -0.65251693477603 0.7624057861129164 0.0
N N 0.24285493239023873 -0.8817296556074677 0.20357235735753745 0.0
N N 0.3187224647703373 -0.9775159788946165 0.3903250039917266 0.0
O O 0.17497195618601566 -0.9789402317200773 0.502529855219525 0.0
O O 0.19557631511431842 -0.8732641293056779 0.4354090365407447 0.0
O O 0.23043002216806688 -0.9253893010505815 0.7098026163685142 0.0
O O 0.14695172312185964 -0.9898324862129679 0.7553202658691576 0.0
Zn Zn 0.23003140942412056 -0.9538885468167758 0.3326517275287882 0.0
C C 0.2573979519361841 -0.3999501556438248 -0.6153122177165049 0.0
H H 0.258517951936184 -0.45052015564382475 -0.6003822177165049 0.0
C C 0.25375667549339204 -0.3439058729897021 -0.5197819056968522 0.0
H H 0.25247667549339214 -0.3625758729897021 -0.45124190569685224 0.0
C C 0.24931092697525947 -0.2791965251205721 -0.5402844267581073 0.0
C C 0.2565542705417096 -0.2543421092049733 -0.6416675477659842 0.0
H H 0.2539842705417095 -0.20391210920497332 -0.6584275477659843 0.0
C C 0.2580638871272425 -0.3030390782936447 -0.7143007998253513 0.0
H H 0.2572838871272425 -0.28591907829364466 -0.7840707998253513 0.0
C C 0.1535540282313141 -0.44270554098110365 -0.9886307565901379 0.0
H H 0.17997402823131414 -0.4100755409811037 -1.0228007565901378 0.0
C C 0.07740467540558124 -0.4466912545297258 -1.037512763595635 0.0
H H 0.05852467540558125 -0.41976125452972574 -1.0980727635956347 0.0
C C 0.04013142855562246 -0.4931904977494131 -0.9702925105125716 0.0
C C 0.07618094498718066 -0.5380277125501016 -0.8841202408991989 0.0
H H 0.050410944987180656 -0.5701977125501013 -0.8481802408991989 0.0
C C 0.12853254313313833 -0.5123145073403643 -0.8571991068344935 0.0
H H 0.14875254313313838 -0.5386845073403642 -0.7967591068344934 0.0
C C 0.33699315656809825 -0.4085997862065309 -0.9757946444046296 0.0
C C 0.37152747400580105 -0.3497955741904961 -1.049054463971888 0.0
C C 0.4180832233087648 -0.3077619263262053 -1.0035387999455143 0.0
H H 0.4177032233087648 -0.2938419263262053 -0.9325087999455143 0.0
C C 0.46227192343497214 -0.2670959638173459 -1.0681555983955933 0.0
H H 0.4878919234349721 -0.22677596381734588 -1.0373155983955933 0.0
C C 0.4601148733050666 -0.28745469703026477 -1.170541005660817 0.0
C C 0.42179810063575046 -0.340933969555351 -1.221386024507558 0.0
H H 0.42461810063575034 -0.35600396955535096 -1.2911560245075586 0.0
C C 0.3864834162162163 -0.3734703641017775 -1.1605339461395154 0.0
C C 0.3364543549762463 -0.44424069069985556 -1.206212360469444 0.0
C C 0.4913579078398481 -0.23265272955236158 -1.2477831694115051 0.0
C C 0.5572559772166269 -0.17178130753835788 -1.180528703328462 0.0
F F 0.600425545712522 -0.22360769215035672 -1.1124971461746576 0.0
F F 0.5189284742450408 -0.12237973434661252 -1.1409107514971066 0.0
F F 0.5986038767096408 -0.1533395873696505 -1.2448365653293463 0.0
N N 0.2694573692850254 -0.3772686905401883 -0.7174731794796508 0.0
N N 0.18059881947499273 -0.4746860666693801 -0.8800601352888684 0.0
O O 0.3217710319267139 -0.471242892087969 -1.0110657143006434 0.0
O O 0.3112291761520612 -0.3654582711432248 -0.93248269949899 0.0
O O 0.2761874491393736 -0.43633683733399353 -1.2218120544938613 0.0
O O 0.36713004140763383 -0.4865522740920675 -1.2567167832617117 0.0
Zn Zn 0.2748860107083705 -0.448769712981956 -0.8227759789302688 0.0
C C 0.7294968825842801 -0.39677497702278813 0.09963803710073373 0.0
H H 0.7283768825842801 -0.4473449770227881 0.08470803710073373 0.0
C C 0.7459079527837918 -0.3453479675490472 0.03950493040432256 0.0
H H 0.7471879527837918 -0.36401796754904725 -0.029035069595677424 0.0
C C 0.7468837287968353 -0.2741395188605126 0.04379177254855716 0.0
C C 0.7383020669562557 -0.2520391004791357 0.13217413822032278 0.0
H H 0.7408720669562557 -0.20160910047913572 0.14893413822032278 0.0
C C 0.737563236746767 -0.30871514965581964 0.2314430310169541 0.0
H H 0.7383432367467669 -0.2915951496558196 0.30121303101695407 0.0
C C 0.8610404330236909 -0.4351915371270792 0.47878342675163355 0.0
H H 0.8346204330236908 -0.4025615371270792 0.5129534267516336 0.0
C C 0.9221746904410107 -0.43954811842221714 0.5255479566854895 0.0
H H 0.9410546904410109 -0.41261811842221713 0.5861079566854894 0.0
C C 0.9577451013541828 -0.49438910667726516 0.4883903810809873 0.0
C C 0.935201400917746 -0.5334343425230512 0.3806783945447444 0.0
H H 0.9609714009177461 -0.5656043425230509 0.3447383945447445 0.0
C C 0.8692431149760833 -0.5142540484694776 0.34466514085804284 0.0
H H 0.8490231149760833 -0.5406240484694776 0.2842251408580428 0.0
C C 0.6587995431696039 -0.4083023606373449 0.4897765599803919 0.0
C C 0.624336424008477 -0.3578110962124967 0.552294849255768 0.0
C C 0.5890651583435609 -0.29894216336304325 0.5266537324153865 0.0
H H 0.5894451583435608 -0.28502216336304337 0.45562373241538634 0.0
C C 0.5345425373088151 -0.25275450754665973 0.5717975496214454 0.0
H H 0.5089225373088151 -0.21243450754665968 0.5409575496214454 0.0
C C 0.5342968204489807 -0.27976278855899567 0.6882458482625524 0.0
C C 0.5852894263857331 -0.3391445168261132 0.7193748364937546 0.0
H H 0.5824694263857333 -0.35421451682611316 0.7891448364937547 0.0
C C 0.627260308435527 -0.38042728740674814 0.6670470856062483 0.0
C C 0.6595800313952059 -0.4356553130392217 0.7218730929718272 0.0
C C 0.49862244953802326 -0.2280660024143664 0.7376223320671383 0.0
C C 0.4417591105647546 -0.17223010223632199 0.690506533954203 0.0
F F 0.4125041595474872 -0.22369325094662132 0.6036162200825088 0.0
F F 0.47596927953354146 -0.12923699556463716 0.6448648129054891 0.0
F F 0.4019364803991382 -0.14369882860575658 0.7400876589176701 0.0
N N 0.7440467189877171 -0.37413202567503734 0.21842145816076933 0.0
N N 0.8286368562846219 -0.48065762993073763 0.3947943028405029 0.0
O O 0.6617748409300601 -0.4706704854669487 0.49301137959028585 0.0
O O 0.6957810964116056 -0.3679392881270225 0.4215044576135061 0.0
O O 0.7270466185309026 -0.4407507030202394 0.7125897964048193 0.0
O O 0.6427687268988745 -0.4852313325773411 0.7661640717554471 0.0
Zn Zn 0.7223196264870443 -0.45700173887588047 0.3402613100929504 0.0
