_cell_length_a 19.5206
_cell_length_b 17.9856
_cell_length_c 12.6054
_cell_angle_alpha 90.0
_cell_angle_beta 99.0355
_cell_angle_gamma 90.0
_symmetry_space_group_name_H-M         'P 1'
_symmetry_Int_Tables_number            1
loop_
_symmetry_equiv_pos_as_xyz
   'x, y, z'
                         
loop_
_atom_site_label
_atom_site_type_symbol
_atom_site_fract_x 
_atom_site_fract_y
_atom_site_fract_z
_atom_site_charge
C C 0.24434762960274603 0.8966297613281933 0.6238327287826589 0.0
H H 0.243227629602746 0.9471997613281933 0.6089027287826589 0.0
C C 0.2393265418724499 0.8439438041464984 0.5141196133193987 0.0
H H 0.24060654187244992 0.8626138041464986 0.44557961331939866 0.0
C C 0.24912586503525525 0.7805526946306709 0.5448651537774841 0.0
C C 0.24031175819169948 0.7524081100746531 0.6544581075651404 0.0
H H 0.2428817581916995 0.7019781100746532 0.6712181075651404 0.0
C C 0.2444537960473964 0.8052756756402119 0.7374192657231623 0.0
H H 0.24523379604739637 0.7881556756402118 0.8071892657231623 0.0
C C 0.35469588450546724 0.940016387689151 0.9719770574687576 0.0
H H 0.32827588450546724 0.9073863876891511 1.0061470574687577 0.0
C C 0.41382313146896643 0.9543248176221142 1.0216870028128135 0.0
H H 0.4327031314689664 0.9273948176221142 1.0822470028128135 0.0
C C 0.45319838950887703 0.9880954439995305 0.9685252226906673 0.0
C C 0.424646739674718 1.0363678557442266 0.8894427723336166 0.0
H H 0.45041673967471785 1.0685378557442262 0.8535027723336165 0.0
C C 0.36192435035999254 1.030462770940159 0.8545451611630822 0.0
H H 0.3417043503599925 1.056832770940159 0.7941051611630822 0.0
C C 0.15581664742425802 0.9079248214365101 0.9727099425970306 0.0
C C 0.12960598501335277 0.8679812342342205 1.0554161262486201 0.0
C C 0.08438869682533025 0.7980798526369172 1.023728117003455 0.0
H H 0.08476869682533024 0.7841598526369171 0.9526981170034549 0.0
C C 0.03515648577207205 0.7567756687326314 1.060648798446193 0.0
H H 0.00953648577207205 0.7164556687326313 1.0298087984461932 0.0
C C 0.04645574336572963 0.7739678200271867 1.184095658326312 0.0
C C 0.08067266598078403 0.8453374221137464 1.2124075692541405 0.0
H H 0.07785266598078405 0.8604074221137462 1.2821775692541408 0.0
C C 0.12805382034856075 0.8745946671003295 1.164475914725872 0.0
C C 0.17445920663134967 0.9383043190032353 1.2114932778683862 0.0
C C 0.004037252427354128 0.7368952426778475 1.2504224656120835 0.0
C C -0.065087396305279 0.6800368883323629 1.1785451022613727 0.0
F F -0.08479388344273632 0.7248527952371353 1.1170682204976583 0.0
F F -0.025890744379016985 0.6351620405184137 1.133229656977388 0.0
F F -0.09611955408372137 0.6571433918110213 1.2370969649025678 0.0
N N 0.24198294311136995 0.878032941020086 0.7194197279075948 0.0
N N 0.32143713575013305 0.975994009985834 0.9051804664164547 0.0
O O 0.16504598637695356 0.9668255554119146 1.004595783708509 0.0
O O 0.1979066095680714 0.8680382994759377 0.9260630706072558 0.0
O O 0.2239395324847091 0.9241449344140452 1.2056035432379841 0.0
O O 0.14392861609363827 0.9925988286284756 1.267878427541494 0.0
Zn Zn 0.22989350501504874 0.9437542769171273 0.8418945575071459 0.0
C C -0.23816384720882422 0.899718017452925 -0.10423016459429754 0.0
H H -0.2370438472088242 0.950288017452925 -0.08930016459429754 0.0
C C -0.24785098912231884 0.8532855668372812 -0.03283534750013397 0.0
H H -0.24913098912231885 0.8719555668372813 0.03570465249986601 0.0
C C -0.23953369348912842 0.7782094406192938 -0.035717198752362705 0.0
C C -0.2473343551000411 0.7538031963272498 -0.1452496512360152 0.0
H H -0.24990435510004108 0.7033731963272498 -0.16200965123601518 0.0
C C -0.24409165252448994 0.8095782638014247 -0.23545118464616968 0.0
H H -0.2448716525244899 0.7924582638014246 -0.30522118464616965 0.0
C C -0.35390331954298454 0.9407021802518571 -0.4771643564883221 0.0
H H -0.32748331954298454 0.9080721802518572 -0.5113343564883222 0.0
C C -0.42815801638054074 0.9428275189217816 -0.5400670519874075 0.0
H H -0.4470380163805407 0.9158975189217816 -0.6006270519874074 0.0
C C -0.45787320884866817 0.9960429060720658 -0.48575240163093386 0.0
C C -0.4238976136274048 1.0320754441607507 -0.37339277334171683 0.0
H H -0.4496676136274047 1.0642454441607505 -0.3374527733417169 0.0
C C -0.36031712692896545 1.0255360295646094 -0.36211239557012237 0.0
H H -0.34009712692896543 1.0519060295646094 -0.3016723955701223 0.0
C C -0.157626928489277 0.9079550972044765 -0.4710504931585415 0.0
C C -0.12663780305993877 0.8658034337697175 -0.5643360451051959 0.0
C C -0.08829110599638239 0.7957568015716772 -0.5063313097304641 0.0
H H -0.08867110599638237 0.7818368015716771 -0.435301309730464 0.0
C C -0.04615061536377998 0.7655081353915204 -0.5836127219171585 0.0
H H -0.020530615363779977 0.7251881353915204 -0.5527727219171584 0.0
C C -0.037381392849596864 0.7844483814717389 -0.6827391976285194 0.0
C C -0.0703072696052181 0.8335206798979684 -0.7183388886633272 0.0
H H -0.06748726960521811 0.8485906798979683 -0.7881088886633274 0.0
C C -0.1209774446090235 0.8806482662706822 -0.6681364381571355 0.0
C C -0.1702131926662107 0.9282497862165332 -0.7244335269463708 0.0
C C -0.0001329879195355604 0.7197869920187949 -0.7450012428915337 0.0
C C 0.046763850939028836 0.687015926926145 -0.6926064067949287 0.0
F F 0.09469021701720431 0.7190603855309625 -0.6150026943628338 0.0
F F 0.023936860526816327 0.630585444340246 -0.6400752356735263 0.0
F F 0.1040785864039946 0.6514405210262517 -0.7411785328072849 0.0
N N -0.23764335101126727 0.8679812318547042 -0.20463279760140515 0.0
N N -0.3131996042479064 0.9692942953925514 -0.38411860492824673 0.0
O O -0.18003606135059266 0.9639778807479163 -0.5055857029404172 0.0
O O -0.18889455866585692 0.8755649164163559 -0.42744847775883554 0.0
O O -0.22965395996425186 0.9348386847547696 -0.7011869338267679 0.0
O O -0.13649490098045036 0.9918733742833388 -0.7524290218731424 0.0
Zn Zn -0.21850779754426286 0.9444226120073356 -0.32081034096977723 0.0
C C 0.7395366654694672 1.3966423392447866 0.6049682148281919 0.0
H H 0.7384166654694672 1.4472123392447864 0.5900382148281919 0.0
C C 0.7381855236292046 1.3531417714794465 0.5198827265046908 0.0
H H 0.7394655236292046 1.3718117714794464 0.4513427265046908 0.0
C C 0.7373773837041353 1.2741612913404892 0.5376086016660332 0.0
C C 0.7375360583812576 1.2613919468602504 0.6404214046615112 0.0
H H 0.7401060583812574 1.2109619468602506 0.6571814046615111 0.0
C C 0.7408515088497393 1.2965581126109202 0.7345193672767705 0.0
H H 0.7416315088497392 1.2794381126109202 0.8042893672767705 0.0
C C 0.8522328582117928 1.4331301241139338 0.9746332121328493 0.0
H H 0.8258128582117928 1.4005001241139337 1.0088032121328494 0.0
C C 0.9101137954806471 1.4444943739786222 1.014049978656547 0.0
H H 0.9289937954806471 1.4175643739786226 1.0746099786565468 0.0
C C 0.9676466898005541 1.4915825701118364 0.9929234581921611 0.0
C C 0.9278951255714075 1.5383828153801367 0.875035330660947 0.0
H H 0.9536651255714076 1.5705528153801367 0.8390953306609469 0.0
C C 0.8700437887874496 1.5267248029937108 0.8558980915108616 0.0
H H 0.8498237887874495 1.5530948029937108 0.7954580915108614 0.0
C C 0.6713985599185355 1.397747684447007 0.9980004927111488 0.0
C C 0.6179781182942434 1.3656426997387139 1.0566461906603706 0.0
C C 0.5908566013756801 1.292699191511377 1.0196309502368364 0.0
H H 0.59123660137568 1.2787791915113773 0.9486009502368364 0.0
C C 0.5399858551229346 1.2501802642914046 1.0774931340452294 0.0
H H 0.5143658551229348 1.2098602642914047 1.0466531340452294 0.0
C C 0.53566591895672 1.2744335911440425 1.1676483910652669 0.0
C C 0.585934495604062 1.3459512107553977 1.222865399302974 0.0
H H 0.583114495604062 1.3610212107553976 1.2926353993029744 0.0
C C 0.6253668730504396 1.3772695308623568 1.165636472722229 0.0
C C 0.6650103049321473 1.4368042376529058 1.2121290812563073 0.0
C C 0.5065900493698617 1.2267104697859952 1.2441979996795338 0.0
C C 0.45147038028559827 1.1831864952975524 1.1964469046464825 0.0
F F 0.4091856769497466 1.2170085279261131 1.097874019772798 0.0
F F 0.4624458680491585 1.1234510427958475 1.136653010580789 0.0
F F 0.41253381555794116 1.1574072440996055 1.2507686976125028 0.0
N N 0.734082433673013 1.3699224996045711 0.713363531912719 0.0
N N 0.8166633604957658 1.480807175517131 0.8855396084492594 0.0
O O 0.6683738140421017 1.4730312368168865 1.0036153534353334 0.0
O O 0.6833985414369602 1.3674647216034972 0.9275767582289441 0.0
O O 0.7279102400735514 1.4239879508021025 1.2214349734325725 0.0
O O 0.6390761633452775 1.4833137341850031 1.2525775895034588 0.0
Zn Zn 0.7292266741567865 1.4524610899650439 0.8272703661719991 0.0
C C 0.267989449474068 1.4073838836445391 -0.10244229323847878 0.0
H H 0.26910944947406806 1.457953883644539 -0.08751229323847878 0.0
C C 0.25258826624086667 1.3581027905755885 -0.029579701877909807 0.0
H H 0.2513082662408667 1.3767727905755884 0.038960298122090176 0.0
C C 0.25581113252378285 1.2834194299419983 -0.050161694537243694 0.0
C C 0.2597193687937409 1.2641114093879733 -0.1419473413190975 0.0
H H 0.2571493687937408 1.2136814093879733 -0.15870734131909747 0.0
C C 0.25460749077606726 1.3037794202731292 -0.23887971562108506 0.0
H H 0.25382749077606725 1.286659420273129 -0.308649715621085 0.0
C C 0.14760335316304501 1.4344896745332074 -0.49614122496541824 0.0
H H 0.17402335316304499 1.4018596745332075 -0.5303112249654183 0.0
C C 0.07984234274760593 1.4416572680359823 -0.5214275608640437 0.0
H H 0.060962342747605924 1.4147272680359824 -0.5819875608640437 0.0
C C 0.03562227088302317 1.4983888705639665 -0.4758435767310593 0.0
C C 0.06972271932271716 1.5231549284298347 -0.3809388355723937 0.0
H H 0.04395271932271716 1.5553249284298345 -0.3449988355723938 0.0
C C 0.1379841529041716 1.5186468712181007 -0.3559820349412984 0.0
H H 0.1582041529041716 1.5450168712181005 -0.2955420349412983 0.0
C C 0.3380332546135058 1.4045471712987698 -0.48265520391656885 0.0
C C 0.37633675892205093 1.3540161049787163 -0.5693130731701618 0.0
C C 0.4169539447059125 1.2891603970558676 -0.5042988390458734 0.0
H H 0.4165739447059125 1.275240397055868 -0.43326883904587327 0.0
C C 0.45998872135972935 1.2668288027816559 -0.561016333108465 0.0
H H 0.48560872135972943 1.226508802781656 -0.5301763331084649 0.0
C C 0.4615364140635455 1.2691701181228452 -0.6773388125046625 0.0
C C 0.4205953163476903 1.3353776017349117 -0.7071620430368724 0.0
H H 0.4234153163476902 1.3504476017349116 -0.7769320430368725 0.0
C C 0.3735922404486597 1.383081066577906 -0.6593330275455596 0.0
C C 0.3383689115350684 1.4286107585660301 -0.7144247648138486 0.0
C C 0.4999879155585643 1.2251039457989306 -0.7564641467883277 0.0
C C 0.545061702615118 1.1808342902401168 -0.6893356327856519 0.0
F F 0.597155177395107 1.2272471776545895 -0.6040545466152055 0.0
F F 0.5217962388245871 1.1175023379642381 -0.6332294193140698 0.0
F F 0.5959743826866114 1.1598136036809266 -0.7400179731307721 0.0
N N 0.2688113795886785 1.3819264093015964 -0.19981608679616716 0.0
N N 0.16935983606413804 1.4767031129706272 -0.40085004524474116 0.0
O O 0.33109334283807035 1.4632338353847845 -0.49602198605039705 0.0
O O 0.300838562042808 1.3736404274684746 -0.4319845107297762 0.0
O O 0.26907497762776833 1.4331795870937134 -0.7080525668306358 0.0
O O 0.3520635803006602 1.489936062796679 -0.7556832944437792 0.0
Zn Zn 0.2727134770395073 1.4505328105716266 -0.32281255324025593 0.0
C C -0.23684528621216272 -0.9058228696838331 -0.5996351205154968 0.0
H H -0.23572528621216268 -0.9563928696838331 -0.5847051205154967 0.0
C C -0.24168667602293795 -0.8507246663953252 -0.5362584754595431 0.0
H H -0.24296667602293798 -0.8693946663953254 -0.4677184754595431 0.0
C C -0.24211708447985872 -0.7838529327750644 -0.5369012296808736 0.0
C C -0.24548180765851535 -0.7529956477827351 -0.6495758403584758 0.0
H H -0.24805180765851534 -0.7025656477827351 -0.6663358403584758 0.0
C C -0.23520640113640365 -0.8143110308619737 -0.7203199950174025 0.0
H H -0.23598640113640365 -0.7971910308619736 -0.7900899950174025 0.0
C C -0.3477266648329403 -0.9457532348772955 -0.9864703281864776 0.0
H H -0.32130666483294024 -0.9131232348772955 -1.0206403281864775 0.0
C C -0.42022728125081815 -0.948024420459208 -1.0117733244833778 0.0
H H -0.43910728125081805 -0.921094420459208 -1.0723333244833777 0.0
C C -0.4533919170158854 -0.9918883050125583 -0.971998648779243 0.0
C C -0.4291787560335341 -1.0292653717073994 -0.8772822605004419 0.0
H H -0.454948756033534 -1.061435371707399 -0.8413422605004418 0.0
C C -0.3669012060645524 -1.0234612913318653 -0.8597069197949248 0.0
H H -0.3466812060645524 -1.0498312913318655 -0.7992669197949247 0.0
C C -0.16580614294862267 -0.8965455615813052 -0.9851043566766368 0.0
C C -0.12249705086204846 -0.8575175429339473 -1.0648928091527254 0.0
C C -0.08677149124095823 -0.8051193324433675 -1.0187158244408205 0.0
H H -0.08715149124095822 -0.7911993324433675 -0.9476858244408204 0.0
C C -0.04394583921045978 -0.7603675323128928 -1.0828454251346216 0.0
H H -0.018325839210459792 -0.7200475323128928 -1.0520054251346218 0.0
C C -0.04423671081017572 -0.7774187439766252 -1.1869673579615574 0.0
C C -0.07943320731545948 -0.8465475653318436 -1.2225040427651237 0.0
H H -0.07661320731545951 -0.8616175653318435 -1.292274042765124 0.0
C C -0.11615791307916395 -0.8737788328821432 -1.1632528862488287 0.0
C C -0.16600579676847887 -0.9331523483151272 -1.217085033895202 0.0
C C 0.0008413530104894868 -0.7296275487640429 -1.2386019959891987 0.0
C C 0.052925198458053505 -0.6720080806080299 -1.177633363627639 0.0
F F 0.08741433332193912 -0.716155166874726 -1.122622806322587 0.0
F F 0.033213913095433784 -0.6180278002565057 -1.1279680337522655 0.0
F F 0.09045658448944338 -0.642706119057151 -1.2545239810496303 0.0
N N -0.23377609371834807 -0.8786952683271518 -0.6927491951999292 0.0
N N -0.3302626294810373 -0.9713351998861518 -0.8945053060499553 0.0
O O -0.161669362928989 -0.9697638916019284 -0.9893873131328303 0.0
O O -0.18616360438108148 -0.8714718842536798 -0.9316322197710587 0.0
O O -0.2366937501645069 -0.9286194094085999 -1.2254336314357057 0.0
O O -0.13755356467726004 -0.9855405619698834 -1.2718373804078043 0.0
Zn Zn -0.2279125230641493 -0.946344699292263 -0.8309914459791208 0.0
C C 0.24225504906630507 -0.8988199399180797 0.10227486835031657 0.0
H H 0.24113504906630506 -0.9493899399180796 0.08734486835031659 0.0
C C 0.24555177967400726 -0.8524749949418001 0.01820137913258493 0.0
H H 0.24683177967400727 -0.8711449949418003 -0.05033862086741505 0.0
C C 0.2537246163143615 -0.7798791381206198 0.040678961546473005 0.0
C C 0.2501949111730807 -0.7502765749459739 0.15803057937204826 0.0
H H 0.25276491117308064 -0.6998465749459738 0.17479057937204823 0.0
C C 0.23489839618373984 -0.7980558993231573 0.2288139550006589 0.0
H H 0.2356783961837398 -0.7809358993231573 0.2985839550006589 0.0
C C 0.3447676598798652 -0.9383422683733617 0.47494169246119944 0.0
H H 0.3183476598798652 -0.9057122683733617 0.5091116924611995 0.0
C C 0.4252289189009726 -0.9404821174750772 0.5376736367238086 0.0
H H 0.44410891890097254 -0.913552117475077 0.5982336367238086 0.0
C C 0.46699359047554945 -0.9912422757197069 0.4746451083756388 0.0
C C 0.4365212497320972 -1.029291314415775 0.40351696778910523 0.0
H H 0.4622912497320971 -1.0614613144157745 0.3675769677891053 0.0
C C 0.3663922082031324 -1.0277708343774374 0.3529715991979555 0.0
H H 0.3461722082031324 -1.0541408343774374 0.2925315991979554 0.0
C C 0.15742022677451445 -0.9054345617523005 0.4741107586508379 0.0
C C 0.12169256543100808 -0.8558594861232418 0.5662859478187527 0.0
C C 0.08913366394849431 -0.790286954096771 0.5168813335221252 0.0
H H 0.0895136639484943 -0.776366954096771 0.44585133352212514 0.0
C C 0.051004489256951585 -0.7613124415948873 0.5790213100131258 0.0
H H 0.025384489256951588 -0.7209924415948873 0.5481813100131259 0.0
C C 0.030362431335150476 -0.7799882127376148 0.6805765641507034 0.0
C C 0.07248022971091272 -0.8377924729095438 0.723476272815121 0.0
H H 0.06966022971091274 -0.8528624729095438 0.7932462728151211 0.0
C C 0.11406051510108108 -0.8859941868638007 0.6563572632213479 0.0
C C 0.15932367542611037 -0.9283495342995868 0.7162582672799491 0.0
C C -0.007182739536934062 -0.7404895117884985 0.7458477627603595 0.0
C C -0.052137969946377566 -0.6831571197966619 0.6979314402592014 0.0
F F -0.09176038431639297 -0.7141129540230462 0.6184652577243182 0.0
F F -0.03282315587640464 -0.6343101770095195 0.6350857398318145 0.0
F F -0.09978791734105334 -0.6612173827048432 0.7429393809175517 0.0
N N 0.23065106750562395 -0.8697431507927111 0.2005674465595744 0.0
N N 0.31249245055225483 -0.9787101128433431 0.3910446911075804 0.0
O O 0.17648697293080445 -0.9716615944937491 0.5031034804741709 0.0
O O 0.19122074241255102 -0.8762693880674797 0.42572191336588583 0.0
O O 0.21686747609725218 -0.9332326184686913 0.7078045662924561 0.0
O O 0.14851268982536503 -0.9842678498690187 0.7667686322280649 0.0
Zn Zn 0.22782420156105598 -0.9519231590736951 0.32849449017298454 0.0
C C 0.2590749796240571 -0.39200637527364207 -0.6227566994430082 0.0
H H 0.26019497962405713 -0.442576375273642 -0.6078266994430082 0.0
C C 0.24667893109508052 -0.3532374377490665 -0.5274634128880384 0.0
H H 0.24539893109508062 -0.37190743774906654 -0.4589234128880384 0.0
C C 0.2515057078513749 -0.2757643296282966 -0.5493970694827688 0.0
C C 0.25999506761016233 -0.2538439389830752 -0.6411377890069807 0.0
H H 0.25742506761016226 -0.20341393898307522 -0.6578977890069807 0.0
C C 0.2645298321537462 -0.3024043560128891 -0.7172346747840038 0.0
H H 0.26374983215374626 -0.28528435601288915 -0.7870046747840038 0.0
C C 0.14649550760458382 -0.4458948794632117 -0.9732930403417291 0.0
H H 0.17291550760458382 -0.4132648794632118 -1.007463040341729 0.0
C C 0.08045424987648282 -0.44847276655903506 -1.0225239713400724 0.0
H H 0.061574249876482835 -0.421542766559035 -1.0830839713400722 0.0
C C 0.03966357042005277 -0.48495008509747745 -0.9855925284870806 0.0
C C 0.07723421499631151 -0.5324061543999897 -0.8778562892300161 0.0
H H 0.05146421499631151 -0.5645761543999895 -0.841916289230016 0.0
C C 0.13939206209648164 -0.5252044593955482 -0.8460743964134935 0.0
H H 0.15961206209648165 -0.5515744593955482 -0.7856343964134933 0.0
C C 0.33300840707216695 -0.40266784770945024 -0.9872680606327757 0.0
C C 0.3740161064455121 -0.3615003435657478 -1.045945734361487 0.0
C C 0.4152396904760625 -0.30779640393363666 -1.0053717049044002 0.0
H H 0.4148596904760625 -0.29387640393363673 -0.9343417049044002 0.0
C C 0.45381461032341286 -0.2589383807385646 -1.076209599979091 0.0
H H 0.47943461032341284 -0.21861838073856457 -1.045369599979091 0.0
C C 0.46919015463674196 -0.2765137729007342 -1.1723706521671269 0.0
C C 0.41737899554426067 -0.3327429004067341 -1.2332235512236698 0.0
H H 0.42019899554426055 -0.34781290040673407 -1.30299355122367 0.0
C C 0.3779864425994641 -0.38310565918079886 -1.171484355589087 0.0
C C 0.33639516227257615 -0.43038367530744315 -1.222275552706989 0.0
C C 0.5095080040086527 -0.23149281101310792 -1.2366832846289753 0.0
C C 0.5545512617351356 -0.17084589842910228 -1.1808012909445245 0.0
F F 0.5924631340108174 -0.21330487178874663 -1.118936507357185 0.0
F F 0.5273528853065472 -0.12352344761736066 -1.124115908221818 0.0
F F 0.5943993946697547 -0.155503893380003 -1.2490218549972987 0.0
N N 0.2672803951474585 -0.3838489758581644 -0.6971897130229984 0.0
N N 0.1813836550517948 -0.4673970317316627 -0.8842697469988275 0.0
O O 0.3299087456071761 -0.4648174112237874 -0.9977982049159227 0.0
O O 0.3035775590456068 -0.3657610834461133 -0.9346449808005629 0.0
O O 0.27525725886493885 -0.43088341056820006 -1.2215026513192606 0.0
O O 0.36391533474020693 -0.48616538575675744 -1.248057037040178 0.0
Zn Zn 0.28048336369001264 -0.4392362531950122 -0.8304349224799097 0.0
C C 0.7391734620330003 -0.40516981582127903 0.10255830551922872 0.0
H H 0.7380534620330003 -0.455739815821279 0.08762830551922872 0.0
C C 0.7499354830677739 -0.34042844392852356 0.02589110083816303 0.0
H H 0.7512154830677737 -0.35909844392852364 -0.04264889916183696 0.0
C C 0.7417287854402723 -0.2806192020148896 0.04110358936111344 0.0
C C 0.7415503142256666 -0.25940193531349365 0.1422592598488078 0.0
H H 0.7441203142256666 -0.20897193531349365 0.1590192598488078 0.0
C C 0.7425334690787788 -0.30557330397847654 0.223955198316731 0.0
H H 0.7433134690787788 -0.2884533039784765 0.29372519831673094 0.0
C C 0.8518176479249489 -0.42875540365219705 0.4906160269447953 0.0
H H 0.8253976479249489 -0.39612540365219706 0.5247860269447954 0.0
C C 0.9144016375679642 -0.4424444089914156 0.5140601525688071 0.0
H H 0.9332816375679642 -0.4155144089914156 0.574620152568807 0.0
C C 0.9506621740795786 -0.49379515079991165 0.47153183865215154 0.0
C C 0.9382511790168615 -0.5285602183158273 0.39785708667177333 0.0
H H 0.9640211790168616 -0.5607302183158271 0.3619170866717734 0.0
C C 0.8683804126041271 -0.5173946213922844 0.3657635981117054 0.0
H H 0.8481604126041271 -0.5437646213922844 0.30532359811170534 0.0
C C 0.6537491862461231 -0.4006425926249926 0.4835822035872246 0.0
C C 0.6267325392766493 -0.35525414574593067 0.5602537067787997 0.0
C C 0.5859560924476439 -0.2969977532072162 0.5039367633359911 0.0
H H 0.5863360924476438 -0.28307775320721634 0.4329067633359911 0.0
C C 0.5421870144356898 -0.2589431783162402 0.5865443250352229 0.0
H H 0.5165670144356899 -0.21862317831624023 0.5557043250352229 0.0
C C 0.5456283066949155 -0.2698999714118046 0.6838655304899741 0.0
C C 0.5675223144419214 -0.3363193234976284 0.719007026785031 0.0
H H 0.5647023144419215 -0.35138932349762836 0.7887770267850311 0.0
C C 0.6245537420108143 -0.37687930288148314 0.6703788732054384 0.0
C C 0.6683274654252684 -0.4466912207881033 0.7208491500878772 0.0
C C 0.5075488017021214 -0.23355446161292984 0.7479920326479601 0.0
C C 0.4479545270977768 -0.18008889239238726 0.6891835822838283 0.0
F F 0.4063310799683405 -0.22266787051688508 0.6065618545037755 0.0
F F 0.4750503877930935 -0.12830997465715857 0.6266072290397803 0.0
F F 0.3980946133833533 -0.14849890827711315 0.7377662423752416 0.0
N N 0.734172204684534 -0.37104614686211257 0.21859886667931638 0.0
N N 0.8256618473112073 -0.4682728529597018 0.4080636820508777 0.0
O O 0.6717544615980848 -0.46233383921170723 0.5047021848519422 0.0
O O 0.6980494783804436 -0.36277230063705335 0.42917066897116524 0.0
O O 0.7239190906233058 -0.4333095636245982 0.7242325387609342 0.0
O O 0.6446736043897984 -0.4794706230160061 0.7737808948828601 0.0
Zn Zn 0.7161218589528076 -0.45315045781620844 0.3326172242230457 0.0
_cell_length_a 19.5206
_cell_length_b 17.9856
_cell_length_c 12.6054
_cell_angle_alpha 90.0
_cell_angle_beta 99.0355
_cell_angle_gamma 90.0
_symmetry_space_group_name_H-M         'P 1'
_symmetry_Int_Tables_number            1
loop_
_symmetry_equiv_pos_as_xyz
   'x, y, z'
                         
loop_
_atom_site_label
_atom_site_type_symbol
_atom_site_fract_x 
_atom_site_fract_y
_atom_site_fract_z
_atom_site_charge
C C 0.23845503817534028 0.9061602329855452 0.6120155856390131 0.0
H H 0.23733503817534027 0.9567302329855452 0.5970855856390131 0.0
C C 0.23574331218210665 0.84869031713912 0.5326745054466476 0.0
H H 0.23702331218210668 0.8673603171391201 0.4641345054466476 0.0
C C 0.2423081061715343 0.7764299561649227 0.5402204447043271 0.0
C C 0.25189676349679635 0.7512190629341163 0.6442204159744411 0.0
H H 0.25446676349679637 0.7007890629341164 0.6609804159744411 0.0
C C 0.24142886561250876 0.8133023173944577 0.7363933246033755 0.0
H H 0.24220886561250873 0.7961823173944577 0.8061633246033755 0.0
C C 0.3457873830815972 0.9328063121699015 0.9757880868993716 0.0
H H 0.3193673830815972 0.9001763121699017 1.0099580868993716 0.0
C C 0.4130351909926736 0.9471555146064512 1.026155458717759 0.0
H H 0.43191519099267356 0.9202255146064512 1.0867154587177588 0.0
C C 0.46421746744551645 1.0048266172999012 0.9821497840595286 0.0
C C 0.4294071752180332 1.0265143827525967 0.8825964831605189 0.0
H H 0.455177175218033 1.0586843827525965 0.8466564831605188 0.0
C C 0.3599400015627115 1.0228005826258786 0.8590480043342757 0.0
H H 0.3397200015627115 1.0491705826258786 0.7986080043342757 0.0
C C 0.175070893186885 0.905904564972931 0.9949480567272286 0.0
C C 0.13350976961054772 0.8646475243829722 1.0638370757079945 0.0
C C 0.08658700134202096 0.7955633330335211 1.0123073428368545 0.0
H H 0.08696700134202096 0.7816433330335211 0.9412773428368544 0.0
C C 0.04854493065643943 0.7557956338690998 1.0713171845827503 0.0
H H 0.022924930656439437 0.7154756338690996 1.0404771845827503 0.0
C C 0.035998461258463336 0.7801310386288103 1.1750114051472103 0.0
C C 0.08159504084652779 0.8392740226629039 1.224805245714635 0.0
H H 0.07877504084652781 0.8543440226629037 1.2945752457146353 0.0
C C 0.12002101542890536 0.887483931560354 1.1636685619611864 0.0
C C 0.1590623573847481 0.9367900739136317 1.220124660190304 0.0
C C -0.0033620468152215353 0.7313592096118369 1.2606243135715238 0.0
C C -0.05277354328222923 0.6813203264860979 1.1754456542918408 0.0
F F -0.10312036272447873 0.7172928432803296 1.095095333522442 0.0
F F -0.03093397666002568 0.622673931539954 1.1242235118562753 0.0
F F -0.0953263769365582 0.6525055921226418 1.262712584593976 0.0
N N 0.2366557426097725 0.8849852771047554 0.7036644052113807 0.0
N N 0.3221056439548717 0.9654610816726564 0.8897631014463124 0.0
O O 0.17816595689724063 0.9697230966026819 1.0023988002753992 0.0
O O 0.18770073891986727 0.8741107568935814 0.909396898994039 0.0
O O 0.22471618338470115 0.937150879420522 1.202750582120861 0.0
O O 0.14945638815867907 0.9827475702887678 1.2612771354347698 0.0
Zn Zn 0.2266141135848377 0.9516589409251076 0.8321066428568863 0.0
C C -0.24114745399042986 0.8927513002296222 -0.09883671399183973 0.0
H H -0.24002745399042985 0.9433213002296222 -0.08390671399183972 0.0
C C -0.25012538086043035 0.8488204314651446 -0.01746065140153331 0.0
H H -0.25140538086043035 0.8674904314651448 0.051079348598466676 0.0
C C -0.23625525769147024 0.7732449222900186 -0.0401190497469804 0.0
C C -0.24184431000978784 0.7614533936660212 -0.15104705223326023 0.0
H H -0.2444143100097878 0.7110233936660211 -0.16780705223326023 0.0
C C -0.23958830635166486 0.806322720863137 -0.2269495445226189 0.0
H H -0.2403683063516648 0.789202720863137 -0.2967195445226189 0.0
C C -0.3572984899795113 0.9391802234293934 -0.4881070844783588 0.0
H H -0.33087848997951125 0.9065502234293935 -0.5222770844783589 0.0
C C -0.4301787994080692 0.94909589595835 -0.5241051654978777 0.0
H H -0.4490587994080691 0.92216589595835 -0.5846651654978776 0.0
C C -0.46853865352581076 0.9886154635637954 -0.4878414462774056 0.0
C C -0.4253229918707896 1.0314774579898505 -0.39169363538104296 0.0
H H -0.4510929918707895 1.0636474579898503 -0.355753635381043 0.0
C C -0.3679596349445176 1.017603314794407 -0.3483335240860256 0.0
H H -0.3477396349445176 1.0439733147944072 -0.28789352408602553 0.0
C C -0.16280512505628433 0.9096670320474066 -0.49262032449409665 0.0
C C -0.11758808857373444 0.8598018501974461 -0.5583237789817036 0.0
C C -0.08211327302079167 0.8060442339015969 -0.5028491225776909 0.0
H H -0.08249327302079164 0.7921242339015969 -0.43181912257769084 0.0
C C -0.03737652039741513 0.7616264511894913 -0.580060405239706 0.0
H H -0.011756520397415138 0.7213064511894913 -0.549220405239706 0.0
C C -0.029497700133982507 0.7785913841987121 -0.674029705622857 0.0
C C -0.077974158097811 0.831879677593618 -0.712074520397856 0.0
H H -0.07515415809781101 0.8469496775936179 -0.7818445203978561 0.0
C C -0.11808948996996807 0.8728003881762992 -0.6557197681161301 0.0
C C -0.15988459151392678 0.9369326958025664 -0.7032717543057657 0.0
C C -0.004091076790174063 0.7248184423072416 -0.7522167098254349 0.0
C C 0.05932588214178342 0.6767056143226016 -0.6862294676027056 0.0
F F 0.09738569184608291 0.7192316282332932 -0.5959696721341872 0.0
F F 0.0297765217279913 0.6245937904101435 -0.6221270259279144 0.0
F F 0.09522271477982071 0.6472711201364738 -0.739578811681479 0.0
N N -0.22855006638420472 0.8828249057939939 -0.2108187394909752 0.0
N N -0.3292244051771239 0.9786042105441592 -0.39672014112022275 0.0
O O -0.16897514874852093 0.9767809241019484 -0.48795330980035506 0.0
O O -0.19100429617511236 0.874538495676716 -0.4110377987866347 0.0
O O -0.23797094459329732 0.9295623612703079 -0.7269028681243139 0.0
O O -0.13621203413536961 0.9864658394969578 -0.7674350637544125 0.0
Zn Zn -0.21725891515092677 0.9495309540579125 -0.3223262780820697 0.0
C C 0.7476510589108255 1.3919412580112218 0.6111305936602817 0.0
H H 0.7465310589108255 1.4425112580112218 0.5962005936602817 0.0
C C 0.7449234397111081 1.3428279915083223 0.5334294025748695 0.0
H H 0.746203439711108 1.3614979915083223 0.46488940257486944 0.0
C C 0.7528375178933606 1.281529175963726 0.552751905560374 0.0
C C 0.743961796089009 1.2509908393107734 0.653317629780543 0.0
H H 0.7465317960890089 1.2005608393107734 0.670077629780543 0.0
C C 0.7375190388087381 1.3024738741858688 0.7115218274683801 0.0
H H 0.738299038808738 1.2853538741858686 0.7812918274683801 0.0
C C 0.8616481051424232 1.4392561954027292 0.9822864341753876 0.0
H H 0.835228105142423 1.406626195402729 1.0164564341753877 0.0
C C 0.9214038847600432 1.4448262332315571 1.013421982589654 0.0
H H 0.9402838847600432 1.4178962332315574 1.073981982589654 0.0
C C 0.967520065802694 1.5029519579434516 0.9805034185601076 0.0
C C 0.9307280813963744 1.532437962148209 0.8998781112041637 0.0
H H 0.9564980813963745 1.5646079621482087 0.8639381112041636 0.0
C C 0.8549253768100136 1.5225097512130557 0.8365790938644818 0.0
H H 0.8347053768100134 1.5488797512130554 0.7761390938644817 0.0
C C 0.6637536328723007 1.4020268779177025 0.9941963726927217 0.0
C C 0.620615935594028 1.356283450685684 1.0568136506307828 0.0
C C 0.5785027348536133 1.2983173506649694 1.0237671674624036 0.0
H H 0.5788827348536132 1.2843973506649697 0.9527371674624037 0.0
C C 0.5485553846489896 1.2646200915591836 1.0800125965272234 0.0
H H 0.5229353846489897 1.224300091559184 1.0491725965272236 0.0
C C 0.5437670153148239 1.2743189682482903 1.1803414096508702 0.0
C C 0.5724888486035734 1.3297455799298346 1.2170141746873282 0.0
H H 0.5696688486035735 1.3448155799298345 1.2867841746873285 0.0
C C 0.6233317330463527 1.3745878434924161 1.1757915918622344 0.0
C C 0.6729928238576907 1.4408094572743175 1.2245146962541051 0.0
C C 0.5019595633180135 1.2208693007928801 1.2454103304606627 0.0
C C 0.4515189530335564 1.1890263112417778 1.1845733460697039 0.0
F F 0.4080553396458233 1.2145864091658098 1.111809867242651 0.0
F F 0.47335533751999537 1.1219978496496543 1.1340688917754462 0.0
F F 0.40610283432210365 1.1409305629800834 1.253566643013408 0.0
N N 0.7372407343362631 1.3834924856636326 0.717171226777384 0.0
N N 0.8259123951606734 1.4650690628439713 0.893611822756322 0.0
O O 0.6765152973960711 1.4683650569793925 1.0056371879286796 0.0
O O 0.6806777576085082 1.3660458329786946 0.9087243597608495 0.0
O O 0.7223410597053942 1.4406965070991642 1.2122377061932976 0.0
O O 0.6385701410609335 1.4855446651759328 1.2601834032600574 0.0
Zn Zn 0.715830267161169 1.4443196318456735 0.8163460474539057 0.0
C C 0.259594515673463 1.3989169283583143 -0.11941046906764806 0.0
H H 0.26071451567346293 1.4494869283583143 -0.10448046906764806 0.0
C C 0.2545857211420139 1.351217394765805 -0.013704823308515277 0.0
H H 0.25330572114201394 1.369887394765805 0.0548351766914847 0.0
C C 0.24953990368449785 1.275735366896006 -0.05321565689750663 0.0
C C 0.2576866721490214 1.259692441728691 -0.1392285230255843 0.0
H H 0.25511667214902134 1.209262441728691 -0.15598852302558427 0.0
C C 0.26501281509215935 1.2970857847047457 -0.22407260120655906 0.0
H H 0.2642328150921593 1.2799657847047456 -0.29384260120655903 0.0
C C 0.15477978573151244 1.4372950801545052 -0.48055690041180416 0.0
H H 0.18119978573151246 1.4046650801545053 -0.5147269004118042 0.0
C C 0.07492654961642699 1.4427973083454448 -0.5259329502620016 0.0
H H 0.05604654961642697 1.415867308345445 -0.5864929502620015 0.0
C C 0.03400313607959282 1.4856895486084023 -0.48556880871523833 0.0
C C 0.06678650974554934 1.5417260283100385 -0.39354383353640604 0.0
H H 0.041016509745549316 1.5738960283100385 -0.3576038335364061 0.0
C C 0.14305662897019586 1.52635138618475 -0.34212285031958367 0.0
H H 0.16327662897019585 1.55272138618475 -0.2816828503195837 0.0
C C 0.3270084498150101 1.40933821115777 -0.49365962099598765 0.0
C C 0.3701849271983226 1.36458129616769 -0.5532551224377935 0.0
C C 0.4091380153673046 1.2968587280740016 -0.5273848248622616 0.0
H H 0.40875801536730455 1.2829387280740019 -0.45635482486226153 0.0
C C 0.44833380337237877 1.2576115384693412 -0.5718465616662396 0.0
H H 0.47395380337237875 1.2172915384693412 -0.5410065616662396 0.0
C C 0.46041638264657164 1.282173121197341 -0.6694194685495137 0.0
C C 0.41397086946189243 1.3409363387734488 -0.7208970146345756 0.0
H H 0.4167908694618923 1.3560063387734487 -0.7906670146345757 0.0
C C 0.38445006969311546 1.3758839544670685 -0.6495300081388691 0.0
C C 0.3248644492178694 1.4275386615141317 -0.7254965921082737 0.0
C C 0.507513948033795 1.2356573992390776 -0.7387438027216634 0.0
C C 0.5443163541096231 1.1755529262379276 -0.6885584981204402 0.0
F F 0.5964004775161854 1.217391866009026 -0.6128417036706734 0.0
F F 0.5329354909836327 1.1196644275423207 -0.6429939031291574 0.0
F F 0.5947671532271727 1.1399120293929375 -0.7447225896230816 0.0
N N 0.2662011358987981 1.366027858572021 -0.20547345074741302 0.0
N N 0.1825579656979503 1.471043028790985 -0.38684833719237477 0.0
O O 0.3264330086509896 1.461346481350736 -0.5031370744323526 0.0
O O 0.316300374623314 1.3696719603826761 -0.43142663582313495 0.0
O O 0.2621312301458687 1.4264590922772293 -0.7158758769939555 0.0
O O 0.3542404632764815 1.488783441209307 -0.7719579751314191 0.0
Zn Zn 0.2857586097807593 1.4570844859290086 -0.3262376277916571 0.0
C C -0.23772816140871383 -0.8932575027710351 -0.5964988861972396 0.0
H H -0.2366081614087138 -0.9438275027710351 -0.5815688861972396 0.0
C C -0.23744470152526517 -0.8528593131215862 -0.5321851544666586 0.0
H H -0.2387247015252652 -0.8715293131215864 -0.46364515446665855 0.0
C C -0.2553099559004285 -0.7752420771404919 -0.5451606479646793 0.0
C C -0.24998421664130147 -0.7470827865214789 -0.6455709115602597 0.0
H H -0.2525542166413015 -0.6966527865214789 -0.6623309115602597 0.0
C C -0.2342307924174654 -0.8037578051314114 -0.7265428719320249 0.0
H H -0.2350107924174654 -0.7866378051314112 -0.7963128719320249 0.0
C C -0.36201955489831705 -0.933367607438009 -0.9918858401723493 0.0
H H -0.335599554898317 -0.9007376074380091 -1.026055840172349 0.0
C C -0.41148159215138963 -0.9477568595461728 -1.0225598042311523 0.0
H H -0.4303615921513895 -0.9208268595461728 -1.0831198042311523 0.0
C C -0.454101947200659 -0.9880866421934819 -0.9722896319960579 0.0
C C -0.4225184656171732 -1.0293859711781983 -0.8883612150828952 0.0
H H -0.4482884656171731 -1.061555971178198 -0.8524212150828951 0.0
C C -0.3573784217772579 -1.020253117893199 -0.847249191081664 0.0
H H -0.33715842177725786 -1.0466231178931993 -0.7868091910816639 0.0
C C -0.16297798825688 -0.9052890296796767 -0.9746622896580452 0.0
C C -0.1310901959920691 -0.8519165122544761 -1.0587920111526943 0.0
C C -0.09512672883274755 -0.7984275662884983 -1.022591604010982 0.0
H H -0.09550672883274754 -0.7845075662884983 -0.951561604010982 0.0
C C -0.04278118896826828 -0.7541021702363219 -1.0798591814512606 0.0
H H -0.017161188968268293 -0.7137821702363217 -1.0490191814512608 0.0
C C -0.027979090864557542 -0.7777499562198517 -1.1650656380362534 0.0
C C -0.08298169724080383 -0.8405447446182057 -1.2282180746953235 0.0
H H -0.08016169724080385 -0.8556147446182056 -1.2979880746953238 0.0
C C -0.11340631051560529 -0.8698828120035746 -1.1627686942953224 0.0
C C -0.17484451977333063 -0.9302039909973182 -1.2139273784590088 0.0
C C 0.0005159710702860615 -0.7346998457590349 -1.2639253140367521 0.0
C C 0.05027614482977606 -0.6724738341920933 -1.1832234114374645 0.0
F F 0.101477705116393 -0.7230838953455837 -1.106270204379796 0.0
F F 0.029875532299749923 -0.6200934437365295 -1.1448522303346256 0.0
F F 0.09818626117664507 -0.6440777664281114 -1.2459930853915548 0.0
N N -0.23402276646192982 -0.8678041068654877 -0.7157459919667599 0.0
N N -0.3204280882026342 -0.9750192521603827 -0.8856536513883612 0.0
O O -0.18002982107852103 -0.9760193765757145 -1.0129727655768561 0.0
O O -0.19113576508792915 -0.8733822347233169 -0.9285421313508944 0.0
O O -0.23330882911658393 -0.9284099934087264 -1.229006605798212 0.0
O O -0.14319110603806068 -0.9863987295510964 -1.2465462914409402 0.0
Zn Zn -0.229983999082039 -0.941432728486314 -0.8297993702627836 0.0
C C 0.24022338009599506 -0.90550206403553 0.10872404740097583 0.0
H H 0.23910338009599505 -0.95607206403553 0.09379404740097583 0.0
C C 0.2528197326697248 -0.8451270065551705 0.03257197011527782 0.0
H H 0.2540997326697248 -0.8637970065551707 -0.03596802988472216 0.0
C C 0.24612578188272793 -0.7747391726839155 0.0332924877811864 0.0
C C 0.24520408372590638 -0.7579743855076092 0.1424051394221351 0.0
H H 0.24777408372590637 -0.7075443855076092 0.1591651394221351 0.0
C C 0.24936909269544907 -0.8085853580865022 0.23000607629393807 0.0
H H 0.250149092695449 -0.7914653580865022 0.29977607629393804 0.0
C C 0.34693597972827117 -0.9398691905792629 0.49235642041287986 0.0
H H 0.3205159797282711 -0.907239190579263 0.5265264204128799 0.0
C C 0.4123216278563005 -0.9473316158067888 0.5259371238481196 0.0
H H 0.43120162785630045 -0.9204016158067887 0.5864971238481196 0.0
C C 0.4528908030874273 -0.9912166018496855 0.4771376666714108 0.0
C C 0.42695345211167846 -1.0237111292026164 0.38244608270482583 0.0
H H 0.45272345211167836 -1.0558811292026162 0.34650608270482586 0.0
C C 0.3645774755332759 -1.014822529349674 0.3531144433176255 0.0
H H 0.3443574755332759 -1.041192529349674 0.2926744433176254 0.0
C C 0.16800882891731492 -0.9037859349954499 0.49764785441182585 0.0
C C 0.11699595168602121 -0.8619810511903898 0.5597900055064284 0.0
C C 0.08804639198377977 -0.7986883417338717 0.5153586729722364 0.0
H H 0.08842639198377976 -0.7847683417338718 0.4443286729722363 0.0
C C 0.04758531870819618 -0.7617781075941575 0.5698230382747167 0.0
H H 0.02196531870819618 -0.7214581075941574 0.5389830382747166 0.0
C C 0.036296946419771485 -0.7706692789305482 0.68434693954591 0.0
C C 0.08412472554716134 -0.8352722309231103 0.7325006058613791 0.0
H H 0.08130472554716135 -0.8503422309231102 0.8022706058613793 0.0
C C 0.12491379178706588 -0.8809726985778148 0.6620952123701268 0.0
C C 0.15593229107212822 -0.9338195104589423 0.7093026043327116 0.0
C C -0.004117503445990347 -0.7228004529267972 0.7459482686969929 0.0
C C -0.053470956737214595 -0.6776816963100204 0.6851899826789023 0.0
F F -0.10373640803751985 -0.715099266732823 0.6084724393674678 0.0
F F -0.020149340574360262 -0.6246296204695103 0.6333848574728587 0.0
F F -0.0986936353418454 -0.6487683927915272 0.7595867768349867 0.0
N N 0.2311405515016898 -0.8694829457394797 0.21360655348750077 0.0
N N 0.33244127529404305 -0.9659423943849349 0.40386686432732627 0.0
O O 0.17398711419431434 -0.9709979344247276 0.5102421884509704 0.0
O O 0.19085688767100195 -0.8721968652100784 0.43610549681214544 0.0
O O 0.2247904213818881 -0.9347899864535489 0.7020886025800853 0.0
O O 0.14165591787624637 -0.9901180953008571 0.7517534205077389 0.0
Zn Zn 0.2212352117333973 -0.9517207744246358 0.3219161256180888 0.0
C C 0.2598419222471884 -0.4044614635501319 -0.6139154078067758 0.0
H H 0.2609619222471883 -0.4550314635501318 -0.5989854078067758 0.0
C C 0.26284411792640683 -0.3534935174619927 -0.5213454275674723 0.0
H H 0.2615641179264069 -0.3721635174619927 -0.4528054275674722 0.0
C C 0.2582905273127571 -0.2741292575844626 -0.548993328169885 0.0
C C 0.24842232544846035 -0.26112287583334076 -0.6395641060497583 0.0
H H 0.2458523254484603 -0.21069287583334073 -0.6563241060497584 0.0
C C 0.25648957831266955 -0.3017461651285371 -0.7382372407843788 0.0
H H 0.2557095783126695 -0.2846261651285371 -0.8080072407843788 0.0
C C 0.14695986874044528 -0.44235199896943916 -0.9923363170084657 0.0
H H 0.17337986874044525 -0.4097219989694392 -1.0265063170084656 0.0
C C 0.07866170312994034 -0.4426399250195659 -1.0137542459127349 0.0
H H 0.059781703129940314 -0.41570992501956583 -1.0743142459127348 0.0
C C 0.030105633127792346 -0.4986431158032603 -0.9755067261316126 0.0
C C 0.06496986206909093 -0.5345001929668569 -0.8849802772504098 0.0
H H 0.0391998620690909 -0.5666701929668567 -0.8490402772504098 0.0
C C 0.13906073344353523 -0.510376945114342 -0.8516818225876759 0.0
H H 0.15928073344353527 -0.536746945114342 -0.7912418225876758 0.0
C C 0.3365232112857593 -0.4127194880639137 -0.9877693508119635 0.0
C C 0.3769483820580144 -0.34616653987054113 -1.0539294023742856 0.0
C C 0.40887257741374544 -0.303382436369413 -1.0144479804633084 0.0
H H 0.4084925774137455 -0.28946243636941305 -0.9434179804633085 0.0
C C 0.4481583205597688 -0.2669760281698233 -1.0780481436695466 0.0
H H 0.47377832055976876 -0.2266560281698233 -1.0472081436695468 0.0
C C 0.47074688227445954 -0.27750056992667277 -1.1651879786907433 0.0
C C 0.43202492335234255 -0.3336670028791792 -1.2190448912805358 0.0
H H 0.43484492335234237 -0.3487370028791792 -1.2888148912805362 0.0
C C 0.38339722048780017 -0.37300892814714076 -1.1667450964700694 0.0
C C 0.34209632621136465 -0.4354162319677063 -1.2067333880795132 0.0
C C 0.5005965115800834 -0.2253955607525516 -1.2464443693358207 0.0
C C 0.5532513944907899 -0.18397481382295222 -1.198504098814193 0.0
F F 0.5859344133508072 -0.21322809915564778 -1.1108015272052982 0.0
F F 0.522515921734027 -0.12220911701412003 -1.1269392768971156 0.0
F F 0.6033333933795575 -0.155189953212574 -1.2463846942453967 0.0
N N 0.26407646641699944 -0.3746238269039749 -0.6940481942376732 0.0
N N 0.16873354764691853 -0.4776618237922602 -0.9026613023538864 0.0
O O 0.3329585460731732 -0.4637787066455306 -1.004388166356498 0.0
O O 0.3085254407770248 -0.37791399647778295 -0.9191628225862628 0.0
O O 0.2683998845782155 -0.4257817958398987 -1.216734427949319 0.0
O O 0.3642891002414255 -0.48549982365262134 -1.2629206418030057 0.0
Zn Zn 0.28212283801328675 -0.4555692372724604 -0.8321179050674293 0.0
C C 0.7402611614566145 -0.39003137176790825 0.11616764056836955 0.0
H H 0.7391411614566143 -0.4406013717679082 0.10123764056836955 0.0
C C 0.738195815532026 -0.3572584599180029 0.021327465135943385 0.0
H H 0.7394758155320259 -0.375928459918003 -0.0472125348640566 0.0
C C 0.7386772997876135 -0.2793083162298891 0.03272752378710824 0.0
C C 0.7482805508400552 -0.2455453822437803 0.1397169574130929 0.0
H H 0.7508505508400551 -0.19511538224378033 0.1564769574130929 0.0
C C 0.7349705908867966 -0.3084618172203239 0.2100065326436998 0.0
H H 0.7357505908867966 -0.29134181722032393 0.2797765326436998 0.0
C C 0.8478396117722423 -0.43329726036354876 0.4881862381907231 0.0
H H 0.8214196117722422 -0.4006672603635487 0.5223562381907232 0.0
C C 0.91095816890541 -0.44382476639242857 0.5187881278612505 0.0
H H 0.9298381689054099 -0.4168947663924286 0.5793481278612505 0.0
C C 0.9573746905230515 -0.4895926533374044 0.4726217803993663 0.0
C C 0.9314108971289002 -0.5308956827303966 0.3754983838042432 0.0
H H 0.9571808971289004 -0.5630656827303963 0.33955838380424325 0.0
C C 0.8644659119088377 -0.5196128326594303 0.34579900812245307 0.0
H H 0.8442459119088378 -0.5459828326594303 0.28535900812245296 0.0
C C 0.6583617264848076 -0.40091788357778824 0.4857031469918865 0.0
C C 0.6155497464268932 -0.35940705718794774 0.5487567541791718 0.0
C C 0.5760411221486742 -0.3018252951908412 0.5009211642909669 0.0
H H 0.5764211221486741 -0.28790529519084135 0.4298911642909668 0.0
C C 0.5348117155724662 -0.2547990773405837 0.5692517684459752 0.0
H H 0.5091917155724662 -0.21447907734058372 0.5384117684459753 0.0
C C 0.5425904703138529 -0.2730718062767326 0.6783787329762024 0.0
C C 0.5798031585038084 -0.3338286339583907 0.7178335354774912 0.0
H H 0.5769831585038085 -0.3488986339583906 0.7876035354774914 0.0
C C 0.6237555890268406 -0.37441152668023686 0.6504611765059687 0.0
C C 0.6723359412134359 -0.43150192702635004 0.7071684095081823 0.0
C C 0.49611396588740975 -0.24149385918999597 0.7520380558711007 0.0
C C 0.4499532026733885 -0.18817540120823562 0.6895132065803087 0.0
F F 0.40700391387933454 -0.22965067645144324 0.6125127826290016 0.0
F F 0.4734026380700706 -0.11366045050880015 0.6389714887436584 0.0
F F 0.4033892877058984 -0.1614082882893986 0.7530536763095053 0.0
N N 0.7280331582107298 -0.38393831566909176 0.20703446621360602 0.0
N N 0.8223100079189939 -0.4749881322592186 0.39226669923400737 0.0
O O 0.6692181571190169 -0.46614026925894986 0.5100735863761733 0.0
O O 0.6802462420019236 -0.3660191942988799 0.41005353275861645 0.0
O O 0.7262510875691233 -0.42450960017910017 0.7109807925246517 0.0
O O 0.647946010865952 -0.4926231729071828 0.7732783446674777 0.0
Zn Zn 0.7292152574684019 -0.44542421815366523 0.3306505793733114 0.0
