_cell_length_a 19.5206
_cell_length_b 17.9856
_cell_length_c 12.6054
_cell_angle_alpha 90.0
_cell_angle_beta 99.0355
_cell_angle_gamma 90.0
_symmetry_space_group_name_H-M         'P 1'
_symmetry_Int_Tables_number            1
loop_
_symmetry_equiv_pos_as_xyz
   'x, y, z'
                         
loop_
_atom_site_label
_atom_site_type_symbol
_atom_site_fract_x 
_atom_site_fract_y
_atom_site_fract_z
_atom_site_charge
C C 0.24109689899601613 0.9029600040347647 0.599278728485144 0.0
H H 0.2399768989960161 0.9535300040347647 0.584348728485144 0.0
C C 0.2387806030771216 0.8565298881870232 0.5212143677906284 0.0
H H 0.24006060307712163 0.8751998881870233 0.4526743677906284 0.0
C C 0.2504671758759344 0.76658408672577 0.5470705724804352 0.0
C C 0.2430889347363577 0.7542621731225546 0.6471993207208461 0.0
H H 0.24565893473635772 0.7038321731225545 0.6639593207208461 0.0
C C 0.24353195324694502 0.8013766759163491 0.7268486367365936 0.0
H H 0.24431195324694502 0.7842566759163491 0.7966186367365936 0.0
C C 0.3456292068218034 0.9328798400580162 0.9862231248773937 0.0
H H 0.31920920682180337 0.9002498400580162 1.0203931248773936 0.0
C C 0.41392767531386204 0.9482710569417444 1.0263136899764573 0.0
H H 0.432807675313862 0.9213410569417443 1.0868736899764573 0.0
C C 0.4699884542272636 0.9905774954643701 0.9786690806009862 0.0
C C 0.42761778450581106 1.0346505948067175 0.8869570653752447 0.0
H H 0.45338778450581096 1.0668205948067173 0.8510170653752446 0.0
C C 0.359183573490657 1.016481372120498 0.8505152614764637 0.0
H H 0.338963573490657 1.042851372120498 0.7900752614764636 0.0
C C 0.1649223085249868 0.9055947721887972 0.9770360600344004 0.0
C C 0.13143218045278113 0.8562101837329008 1.0571999723499705 0.0
C C 0.08181944966602929 0.7964136752766396 1.010647501426467 0.0
H H 0.08219944966602928 0.7824936752766396 0.939617501426467 0.0
C C 0.04416519279960825 0.756867069166973 1.068520935771729 0.0
H H 0.018545192799608257 0.716547069166973 1.0376809357717292 0.0
C C 0.04174787526075718 0.7773886556767476 1.167823621006676 0.0
C C 0.07385557675435715 0.8350179586396305 1.217186537337669 0.0
H H 0.07103557675435718 0.8500879586396303 1.286956537337669 0.0
C C 0.11300578885563403 0.8762806469684111 1.1630032535706685 0.0
C C 0.16972827893228384 0.9301208141517743 1.2108906391872258 0.0
C C 0.0015534001490028733 0.7280108966460266 1.2562223544510052 0.0
C C -0.0631822693876444 0.6737565205671263 1.1886319160343757 0.0
F F -0.10209819582614096 0.7166716404189507 1.099611161963631 0.0
F F -0.030292181299477423 0.6166671046831306 1.125517768495314 0.0
F F -0.09713004815463358 0.6485657769591283 1.261705039568768 0.0
N N 0.24382422090288133 0.8784517270165966 0.7012278132943444 0.0
N N 0.32741100090412306 0.9648305903640011 0.8949552468861037 0.0
O O 0.17761739856657227 0.9756887086898354 1.009562518616243 0.0
O O 0.19243733865455923 0.8600197323084617 0.9276154559021444 0.0
O O 0.2304769193602732 0.9355267280747767 1.2136105076929251 0.0
O O 0.14880077094279778 0.9909322064502348 1.271550911485625 0.0
Zn Zn 0.21953364880831652 0.9530556145698356 0.8183502530203237 0.0
C C -0.24718699144078737 0.9026859459264478 -0.11630298458697905 0.0
H H -0.24606699144078734 0.9532559459264477 -0.10137298458697905 0.0
C C -0.24241761801755388 0.8413637216128588 -0.028568930524174776 0.0
H H -0.2436976180175539 0.8600337216128588 0.03997106947582521 0.0
C C -0.25359288628615895 0.7781486848216654 -0.03538404625469688 0.0
C C -0.2561904787617401 0.7555195930668245 -0.14725284767770438 0.0
H H -0.2587604787617401 0.7050895930668245 -0.16401284767770438 0.0
C C -0.24112564025444155 0.8001216827344787 -0.23783446760422175 0.0
H H -0.2419056402544415 0.7830016827344787 -0.3076044676042217 0.0
C C -0.3513537657278653 0.9448222853532512 -0.4809467998283359 0.0
H H -0.3249337657278653 0.9121922853532514 -0.5151167998283359 0.0
C C -0.4289888987794015 0.943765628428404 -0.5386873765470691 0.0
H H -0.44786889877940145 0.9168356284284039 -0.599247376547069 0.0
C C -0.45733500240347735 1.004007880050217 -0.4705293266452712 0.0
C C -0.4383093257336495 1.0274965142817234 -0.3845947336094557 0.0
H H -0.4640793257336494 1.0596665142817232 -0.3486547336094557 0.0
C C -0.3588999321774669 1.0173006691518673 -0.3443890827254179 0.0
H H -0.3386799321774669 1.0436706691518673 -0.28394908272541786 0.0
C C -0.17243606875697906 0.9074777492376772 -0.48301857947321053 0.0
C C -0.132224068081218 0.8645789775046238 -0.562951616461443 0.0
C C -0.08082738897353285 0.7945430171181647 -0.4993448286583189 0.0
H H -0.08120738897353283 0.7806230171181647 -0.4283148286583188 0.0
C C -0.04026712016361584 0.7585963490069545 -0.5864162456743661 0.0
H H -0.014647120163615848 0.7182763490069545 -0.5555762456743661 0.0
C C -0.03541442357555628 0.7832326794427534 -0.6815130217866858 0.0
C C -0.07922994045729681 0.8316907528707495 -0.7269331711325085 0.0
H H -0.07640994045729682 0.8467607528707494 -0.7967031711325088 0.0
C C -0.11338384284826904 0.8806930832975163 -0.6657706310801061 0.0
C C -0.17447740270674686 0.9299324464792986 -0.7265154906084402 0.0
C C -0.002718173273441453 0.7308468813542668 -0.7532375921571157 0.0
C C 0.05555829410929467 0.6783251192017221 -0.6748165054548081 0.0
F F 0.09628351945022076 0.7112400423080288 -0.6013917237551722 0.0
F F 0.02389767098794479 0.6257234982976682 -0.6313335466260862 0.0
F F 0.08948774861557009 0.6445778080310881 -0.7490033038188693 0.0
N N -0.23946839462898387 0.8838764910865733 -0.20788720264627616 0.0
N N -0.32656928128856355 0.9828118483894538 -0.3975601952668664 0.0
O O -0.1692384033676593 0.9627055597328785 -0.5036183740727881 0.0
O O -0.18392104397280554 0.8736982603956913 -0.4195270442748097 0.0
O O -0.23001887022538883 0.9254862109414277 -0.7063539031130395 0.0
O O -0.1440559289361587 0.987492653841613 -0.761376620044615 0.0
Zn Zn -0.21539228039247682 0.9531927787529071 -0.3307236348524854 0.0
C C 0.742925176263143 1.3903088961678531 0.6142789597219827 0.0
H H 0.7418051762631431 1.4408788961678531 0.5993489597219825 0.0
C C 0.7429727285834148 1.3450600504806811 0.5155565059253482 0.0
H H 0.7442527285834148 1.363730050480681 0.4470165059253482 0.0
C C 0.7546601694966778 1.2792846117159995 0.5379070141113008 0.0
C C 0.7417253679536545 1.259945336707494 0.6389592829834485 0.0
H H 0.7442953679536545 1.209515336707494 0.6557192829834485 0.0
C C 0.7314465518986435 1.3063312452270046 0.7153409818909939 0.0
H H 0.7322265518986436 1.2892112452270044 0.7851109818909939 0.0
C C 0.85100825502359 1.4401923217376003 0.9751049959535169 0.0
H H 0.82458825502359 1.4075623217376003 1.0092749959535168 0.0
C C 0.9219655409148251 1.4489698132574245 1.017064338457115 0.0
H H 0.9408455409148251 1.4220398132574248 1.077624338457115 0.0
C C 0.9615928981931209 1.5019878543789402 0.9722658798262881 0.0
C C 0.9382051957105655 1.5331577462905976 0.8821376432185808 0.0
H H 0.9639751957105656 1.5653277462905977 0.8461976432185807 0.0
C C 0.8725170577168249 1.5229608194287967 0.8501433618554795 0.0
H H 0.8522970577168248 1.5493308194287967 0.7897033618554794 0.0
C C 0.6724594987713665 1.3988514089093063 0.9951311808657765 0.0
C C 0.6164785267149308 1.3607474812726756 1.0504560306725905 0.0
C C 0.5870880767818051 1.2941896661694998 1.0029382019113264 0.0
H H 0.587468076781805 1.2802696661695 0.9319082019113264 0.0
C C 0.5446256625224551 1.2656153672845605 1.0855624558095252 0.0
H H 0.5190056625224552 1.2252953672845606 1.0547224558095254 0.0
C C 0.5369164273592101 1.277186146511121 1.1654781002638648 0.0
C C 0.5783493834966881 1.3398656321226752 1.2253080772873008 0.0
H H 0.5755293834966881 1.354935632122675 1.2950780772873012 0.0
C C 0.622214107549421 1.3747426422290296 1.168370234859548 0.0
C C 0.6611509218832822 1.4372814439387125 1.2122261556245386 0.0
C C 0.49375176332266524 1.2214173732867268 1.2497443197164542 0.0
C C 0.4428259992157659 1.175696934521099 1.1931297650554107 0.0
F F 0.4111273200844319 1.2162550040846574 1.0999884676767793 0.0
F F 0.4647120873138551 1.1292995350535509 1.1311961576627512 0.0
F F 0.4002475092299917 1.1498619742439344 1.2433092959988903 0.0
N N 0.7364224476673259 1.3786841335376276 0.7136436193347235 0.0
N N 0.8183616999144032 1.4781456930063144 0.8895697118117204 0.0
O O 0.6716575605688051 1.4662495222244702 0.9909184780532895 0.0
O O 0.696204199978571 1.3708530627108109 0.917183696323142 0.0
O O 0.7344077512794278 1.4327915491999685 1.2150415468030586 0.0
O O 0.6536965574219825 1.4851978098111454 1.2639376541822365 0.0
Zn Zn 0.7259354819959937 1.4426244003569362 0.8311752350660447 0.0
C C 0.2610156519249701 1.39674269560335 -0.11596479763331127 0.0
H H 0.2621356519249701 1.44731269560335 -0.10103479763331127 0.0
C C 0.26080502253820453 1.3490830535827107 -0.023646276942888917 0.0
H H 0.25952502253820464 1.3677530535827107 0.04489372305711107 0.0
C C 0.24426863229884907 1.2704471108382394 -0.054201959230680385 0.0
C C 0.2517148525855972 1.2569461049993698 -0.14390694139810106 0.0
H H 0.24914485258559713 1.20651610499937 -0.16066694139810106 0.0
C C 0.25143356983631454 1.3086111590811593 -0.219924247578159 0.0
H H 0.2506535698363146 1.2914911590811593 -0.289694247578159 0.0
C C 0.1457955527641098 1.432006458583478 -0.47239564799106537 0.0
H H 0.17221555276410977 1.3993764585834778 -0.5065656479910655 0.0
C C 0.07408228233098586 1.4441865758384453 -0.5306690699053578 0.0
H H 0.05520228233098584 1.4172565758384454 -0.5912290699053577 0.0
C C 0.041480026049979093 1.4887136830959937 -0.47559972108117093 0.0
C C 0.06748130197022224 1.5393943769289766 -0.3807172744098815 0.0
H H 0.04171130197022224 1.5715643769289767 -0.3447772744098816 0.0
C C 0.13408020042557187 1.5099514148185929 -0.3558001061842727 0.0
H H 0.15430020042557185 1.5363214148185929 -0.29536010618427266 0.0
C C 0.3324542554343883 1.4061473107908617 -0.4829678061178665 0.0
C C 0.37666586390836476 1.3558987015879942 -0.5418511104696103 0.0
C C 0.41305654430888733 1.2984720099211091 -0.5272591569587187 0.0
H H 0.4126765443088874 1.2845520099211094 -0.45622915695871863 0.0
C C 0.4624299042253592 1.2524351381628327 -0.5672345130076696 0.0
H H 0.48804990422535915 1.212115138162833 -0.5363945130076696 0.0
C C 0.46153011713289754 1.2727783496242941 -0.6795705261218568 0.0
C C 0.4242932259386865 1.341527503529208 -0.7074468057098449 0.0
H H 0.4271132259386863 1.356597503529208 -0.7772168057098451 0.0
C C 0.3766873413054395 1.3694524812280326 -0.6517453688347499 0.0
C C 0.3376077312829456 1.4346521890420214 -0.7020796760937682 0.0
C C 0.49942036197695616 1.2248503595856095 -0.7604640181762342 0.0
C C 0.5592306210521747 1.1822951229342415 -0.677114918416726 0.0
F F 0.5970846015619233 1.2186251711974883 -0.6161925362888547 0.0
F F 0.5242630252198343 1.1226148325596235 -0.6265159331156481 0.0
F F 0.6029132530288027 1.1540351703651333 -0.7558429467094766 0.0
N N 0.2684509263434427 1.3824778267403326 -0.2034469751450872 0.0
N N 0.17250390374753838 1.4680939847930659 -0.40553213302310337 0.0
O O 0.32629694280826577 1.4700865384449313 -0.5127851701502664 0.0
O O 0.31412123865855773 1.3794148350486348 -0.41672044732780994 0.0
O O 0.2730278682239299 1.4379849920450163 -0.7051613756137833 0.0
O O 0.36341378962698906 1.4933090292374422 -0.7509246344374221 0.0
Zn Zn 0.2761087522177788 1.445641601207551 -0.3317194610962193 0.0
C C -0.23551146033964407 -0.9005141037349969 -0.616459645607304 0.0
H H -0.23439146033964403 -0.9510841037349967 -0.601529645607304 0.0
C C -0.24065203726936546 -0.8592687764190513 -0.532288484458728 0.0
H H -0.2419320372693655 -0.8779387764190514 -0.463748484458728 0.0
C C -0.2477371341862132 -0.7775592984619774 -0.5361705859599669 0.0
C C -0.25111866020601553 -0.7642789499869886 -0.6453987147616161 0.0
H H -0.2536886602060155 -0.7138489499869887 -0.6621587147616161 0.0
C C -0.24278883579017385 -0.8055022866266303 -0.7240230771592419 0.0
H H -0.24356883579017383 -0.7883822866266302 -0.7937930771592419 0.0
C C -0.35121698296892 -0.9275686001575673 -0.9776794700241924 0.0
H H -0.32479698296892 -0.8949386001575674 -1.0118494700241925 0.0
C C -0.42765109643456956 -0.9434560099606768 -1.0277491653894342 0.0
H H -0.4465310964345695 -0.9165260099606768 -1.088309165389434 0.0
C C -0.468026624130077 -0.9992157212571282 -0.978883738834238 0.0
C C -0.4330747984713044 -1.0330736182206706 -0.8807780594030644 0.0
H H -0.45884479847130427 -1.0652436182206704 -0.8448380594030643 0.0
C C -0.36592937571314366 -1.0286676229580356 -0.8446909315655128 0.0
H H -0.34570937571314364 -1.0550376229580356 -0.7842509315655127 0.0
C C -0.1614584503965591 -0.9126514293062057 -0.9865290065658873 0.0
C C -0.1351942497592158 -0.8610467767842616 -1.0646316056557192 0.0
C C -0.08437528789014842 -0.8001189514915726 -1.0114344383879212 0.0
H H -0.0847552878901484 -0.7861989514915726 -0.9404044383879212 0.0
C C -0.040699657933553485 -0.7667634173851601 -1.0637805165488197 0.0
H H -0.01507965793355348 -0.72644341738516 -1.0329405165488197 0.0
C C -0.04932015115274523 -0.7787017076132311 -1.1786675603342711 0.0
C C -0.07718594096964725 -0.8399306341193077 -1.2184919000553207 0.0
H H -0.07436594096964726 -0.8550006341193076 -1.2882619000553208 0.0
C C -0.12106928038309864 -0.8851466934674375 -1.1692150039288207 0.0
C C -0.17471690428864342 -0.9280142913195907 -1.217989630764397 0.0
C C -0.007789789940522961 -0.7330868060896613 -1.2488590502970673 0.0
C C 0.050734637753624315 -0.6707180218233343 -1.183573889457793 0.0
F F 0.09939873491623963 -0.7135866651328338 -1.1117832095315074 0.0
F F 0.021633589308862725 -0.6173348331312933 -1.1364149231024891 0.0
F F 0.08722011189778545 -0.6536125739440268 -1.2554368880491238 0.0
N N -0.22654777056530573 -0.8733582331370147 -0.6966036326509754 0.0
N N -0.3211692906664681 -0.9753644137647158 -0.8929252917943267 0.0
O O -0.1745284650851033 -0.9790847571173077 -0.9952141089045321 0.0
O O -0.19233531965325543 -0.870467138030117 -0.9220113362768845 0.0
O O -0.2284070450975502 -0.9407820850159758 -1.2190842688139825 0.0
O O -0.14446239645635242 -0.9875564965959868 -1.265627224481466 0.0
Zn Zn -0.22264641924462938 -0.9591916525052253 -0.8218587865277405 0.0
C C 0.2337481961446254 -0.8976470402500722 0.10250639245601098 0.0
H H 0.23262819614462538 -0.9482170402500723 0.087576392456011 0.0
C C 0.24312807615251006 -0.8574496676017463 0.03274267566152935 0.0
H H 0.2444080761525101 -0.8761196676017465 -0.03579732433847063 0.0
C C 0.2549743451705083 -0.7738647431514954 0.04889698071569117 0.0
C C 0.2516342115835563 -0.7492848341954079 0.15241359031506632 0.0
H H 0.25420421158355627 -0.6988548341954078 0.16917359031506632 0.0
C C 0.24523410207887347 -0.7946977415193118 0.2270949566032778 0.0
H H 0.24601410207887345 -0.7775777415193117 0.2968649566032778 0.0
C C 0.3500571435333086 -0.9400243312575479 0.48731483891070076 0.0
H H 0.3236371435333086 -0.9073943312575481 0.5214848389107009 0.0
C C 0.41821973233133997 -0.9449503058594702 0.5097306762749956 0.0
H H 0.4370997323313399 -0.9180203058594701 0.5702906762749955 0.0
C C 0.4649652306750223 -0.9911199535848338 0.4845594765234963 0.0
C C 0.4298634579202665 -1.027401891595872 0.38984759461274343 0.0
H H 0.45563345792026644 -1.0595718915958718 0.35390759461274346 0.0
C C 0.36040226832776356 -1.0300134569355257 0.3509683704254262 0.0
H H 0.34018226832776355 -1.0563834569355257 0.2905283704254262 0.0
C C 0.16433270006340112 -0.9144321947441844 0.48006086988784225 0.0
C C 0.11824104002972072 -0.854768188590838 0.5478935159268594 0.0
C C 0.08594187547631105 -0.8060999310415297 0.5120203518850089 0.0
H H 0.08632187547631102 -0.7921799310415297 0.44099035188500885 0.0
C C 0.04579889158442769 -0.7598887478024196 0.5735357020204398 0.0
H H 0.020178891584427688 -0.7195687478024195 0.5426957020204397 0.0
C C 0.03652299929466517 -0.7776931319907119 0.6894287360782583 0.0
C C 0.07116090933004661 -0.8413016041643259 0.7262790976697149 0.0
H H 0.06834090933004662 -0.8563716041643257 0.796049097669715 0.0
C C 0.11909726853169444 -0.8792946933543611 0.6643289430803487 0.0
C C 0.1621721512149005 -0.9314535207444693 0.72623795512356 0.0
C C 0.004488908944419446 -0.7331297626372655 0.7509017108401375 0.0
C C -0.058308772914544095 -0.6887529921055703 0.6878775691713139 0.0
F F -0.10067765182957113 -0.7173798382594706 0.6174567572466249 0.0
F F -0.019612408714858545 -0.6255427278718064 0.6416281520937304 0.0
F F -0.09235082818263633 -0.6592481474217716 0.7551710799639325 0.0
N N 0.2327236257717561 -0.8699621963151266 0.21392194839250392 0.0
N N 0.3214387901903093 -0.9826777978428395 0.402987556597188 0.0
O O 0.16771175667827629 -0.9820622263206532 0.5006474851680865 0.0
O O 0.1882936062945081 -0.8679123405882695 0.42557995240941443 0.0
O O 0.22808293039894914 -0.9256565437534044 0.7064479485535262 0.0
O O 0.14634149059281384 -0.9857789162248 0.770529701524445 0.0
Zn Zn 0.2138767049241523 -0.9533693918956875 0.3268230898953083 0.0
C C 0.25605298939905224 -0.3932805490683371 -0.6056098111510948 0.0
H H 0.2571729893990522 -0.443850549068337 -0.5906798111510948 0.0
C C 0.2522683950833856 -0.3552705705003675 -0.5360728959570916 0.0
H H 0.25098839508338566 -0.3739405705003675 -0.4675328959570916 0.0
C C 0.24825358882815637 -0.2738994335890123 -0.5494071105720224 0.0
C C 0.24344378707773479 -0.2562402359040967 -0.6510230990209055 0.0
H H 0.24087378707773474 -0.20581023590409672 -0.6677830990209055 0.0
C C 0.2547446873402356 -0.3058190120679916 -0.7290995857223453 0.0
H H 0.25396468734023553 -0.2886990120679916 -0.7988695857223453 0.0
C C 0.14512490061418032 -0.44000432041223697 -0.9769294224161889 0.0
H H 0.17154490061418032 -0.40737432041223703 -1.0110994224161889 0.0
C C 0.08184583372779367 -0.45356623710361066 -1.0173728875691326 0.0
H H 0.06296583372779364 -0.42663623710361065 -1.0779328875691323 0.0
C C 0.044084364776229464 -0.4887005899670306 -0.9759027876596642 0.0
C C 0.06996956449727279 -0.5331826217000821 -0.8728757258680402 0.0
H H 0.04419956449727279 -0.5653526217000818 -0.8369357258680401 0.0
C C 0.13778153693308465 -0.5261684438343862 -0.8524669525140269 0.0
H H 0.1580015369330847 -0.5525384438343862 -0.7920269525140268 0.0
C C 0.33212811451503665 -0.40383831246344787 -0.9864993333902796 0.0
C C 0.3731599812559567 -0.35774560391624294 -1.056974297075988 0.0
C C 0.41041881895417487 -0.29200255042915474 -1.0180662008266754 0.0
H H 0.41003881895417493 -0.2780825504291548 -0.9470362008266753 0.0
C C 0.46487145079315373 -0.25546552907575704 -1.0738993421116616 0.0
H H 0.4904914507931537 -0.215145529075757 -1.0430593421116616 0.0
C C 0.4618569170335406 -0.2880303632642802 -1.1853943255748274 0.0
C C 0.42178139495001793 -0.3487021257649046 -1.2239629386983748 0.0
H H 0.4246013949500179 -0.36377212576490453 -1.293732938698375 0.0
C C 0.3822528579024498 -0.3737271647971499 -1.1726954250206445 0.0
C C 0.33566741042526 -0.44430394447354365 -1.2077878991961937 0.0
C C 0.49997019676026455 -0.22707787476841967 -1.243152074378134 0.0
C C 0.554094517164069 -0.1908026601797042 -1.1836523544386035 0.0
F F 0.6044999430070562 -0.2220484230988112 -1.1072008368341788 0.0
F F 0.5279696633042593 -0.1137410462271677 -1.137868041736717 0.0
F F 0.6029175833546835 -0.15174401916134958 -1.252686379758921 0.0
N N 0.25673335956544946 -0.3794668031044995 -0.7054151455203496 0.0
N N 0.17044628016056068 -0.4716955374737914 -0.9043995754493158 0.0
O O 0.3236938499004268 -0.4740662995152763 -1.006532623516008 0.0
O O 0.3126340939982127 -0.3636677998820736 -0.9230890401956741 0.0
O O 0.27165930801863447 -0.4331327545568916 -1.229083822564279 0.0
O O 0.3589023840678044 -0.4745503620737634 -1.2590077068774834 0.0
Zn Zn 0.2813355569767145 -0.44264273269509147 -0.8301598356028742 0.0
C C 0.7468529271388674 -0.39154534325904206 0.11351338203074546 0.0
H H 0.7457329271388674 -0.442115343259042 0.09858338203074547 0.0
C C 0.7499840283902146 -0.3428274352360296 0.027063903657947058 0.0
H H 0.7512640283902146 -0.3614974352360297 -0.041476096342052925 0.0
C C 0.753899729349075 -0.2812253053710604 0.04536910163052165 0.0
C C 0.7391569905510431 -0.2572162124312381 0.1385957931460486 0.0
H H 0.741726990551043 -0.20678621243123813 0.15535579314604858 0.0
C C 0.7336961095594527 -0.29953237605632355 0.2231223864509978 0.0
H H 0.7344761095594528 -0.2824123760563235 0.29289238645099774 0.0
C C 0.845812452882834 -0.445341051701528 0.47672032257022356 0.0
H H 0.819392452882834 -0.41271105170152794 0.5108903225702236 0.0
C C 0.9173225168655337 -0.4570064680423019 0.5235831199221183 0.0
H H 0.9362025168655336 -0.4300764680423019 0.5841431199221182 0.0
C C 0.9589945593223279 -0.5043410181760503 0.4786858817418606 0.0
C C 0.9396884492756808 -0.5238418094402764 0.3867725804816646 0.0
H H 0.9654584492756809 -0.5560118094402761 0.3508325804816646 0.0
C C 0.8527079120809934 -0.518662581046702 0.35033224678227926 0.0
H H 0.8324879120809933 -0.545032581046702 0.28989224678227926 0.0
C C 0.6594420417492955 -0.41072381125856516 0.49047106146733216 0.0
C C 0.6287518592319828 -0.35108282765057086 0.5506972626091959 0.0
C C 0.5762374218543963 -0.29155014536183244 0.5106923901068454 0.0
H H 0.5766174218543962 -0.27763014536183256 0.4396623901068453 0.0
C C 0.5334211072159616 -0.2619008582312834 0.5757396431708555 0.0
H H 0.5078011072159616 -0.22158085823128337 0.5448996431708554 0.0
C C 0.5416347568908317 -0.28228862517386005 0.6749200423023838 0.0
C C 0.5804219366634178 -0.3422861246672674 0.7135688626582644 0.0
H H 0.5776019366634179 -0.35735612466726735 0.7833388626582645 0.0
C C 0.6223334171733219 -0.37824802575169686 0.6539092859692078 0.0
C C 0.6705642864036875 -0.4412159240753022 0.7180079832848835 0.0
C C 0.4933140045842229 -0.2357914147365687 0.7511714629119676 0.0
C C 0.4557080212390721 -0.18027289968272445 0.6902653392189533 0.0
F F 0.40156494792307684 -0.2189274659305804 0.6033701274162853 0.0
F F 0.4656969915229758 -0.11944357268928145 0.6259646687538069 0.0
F F 0.4070111599537354 -0.15064513062457466 0.7417922811866094 0.0
N N 0.7371252602707146 -0.3787802538054777 0.20080402105988007 0.0
N N 0.8255878007258644 -0.4724875910981017 0.38465626686910004 0.0
O O 0.6626998436494832 -0.46909030031566057 0.49168597069499104 0.0
O O 0.6954874589599852 -0.37120866097268646 0.4329624016375782 0.0
O O 0.7292598008896916 -0.4372483627813021 0.7154162117213753 0.0
O O 0.6389767425267165 -0.48163812859657507 0.7570225237975069 0.0
Zn Zn 0.7196680211479354 -0.44896813842213545 0.336801001784909 0.0
_cell_length_a 19.5206
_cell_length_b 17.9856
_cell_length_c 12.6054
_cell_angle_alpha 90.0
_cell_angle_beta 99.0355
_cell_angle_gamma 90.0
_symmetry_space_group_name_H-M         'P 1'
_symmetry_Int_Tables_number            1
loop_
_symmetry_equiv_pos_as_xyz
   'x, y, z'
                         
loop_
_atom_site_label
_atom_site_type_symbol
_atom_site_fract_x 
_atom_site_fract_y
_atom_site_fract_z
_atom_site_charge
C C 0.2442121575398898 0.8944406739708097 0.604104371352142 0.0
H H 0.24309215753988977 0.9450106739708097 0.589174371352142 0.0
C C 0.25339178287824776 0.8568082283164337 0.5323986407116987 0.0
H H 0.25467178287824777 0.8754782283164338 0.46385864071169874 0.0
C C 0.24389960912416003 0.7806105921145815 0.5497675405782974 0.0
C C 0.24220476114073103 0.7591095218116689 0.6374749863553719 0.0
H H 0.24477476114073105 0.7086795218116689 0.6542349863553719 0.0
C C 0.2405607975555336 0.8162262538956687 0.7270618747737857 0.0
H H 0.24134079755553361 0.7991062538956687 0.7968318747737857 0.0
C C 0.347982171222788 0.940441908114798 0.9767199450740088 0.0
H H 0.321562171222788 0.9078119081147982 1.0108899450740088 0.0
C C 0.418214689792171 0.9359341458497616 1.0220249374865273 0.0
H H 0.437094689792171 0.9090041458497615 1.0825849374865273 0.0
C C 0.45714047122098633 0.9998031079613283 0.9800187844912817 0.0
C C 0.4298403412807194 1.0233428151350819 0.8765543597346723 0.0
H H 0.4556103412807193 1.0555128151350817 0.8406143597346722 0.0
C C 0.36588234286040633 1.0224156383529108 0.8396993287812479 0.0
H H 0.3456623428604063 1.0487856383529108 0.7792593287812478 0.0
C C 0.1638155847142264 0.9098838591985247 0.9983644731216696 0.0
C C 0.12107878723016935 0.8539844573234299 1.0605478486094566 0.0
C C 0.08353918140421375 0.8087005499625107 1.0178599875246184 0.0
H H 0.08391918140421374 0.7947805499625107 0.9468299875246184 0.0
C C 0.047684875868379405 0.7613176733466246 1.0730604554709213 0.0
H H 0.022064875868379397 0.7209976733466246 1.0422204554709216 0.0
C C 0.04370353618288402 0.7857096655522227 1.1776538421253848 0.0
C C 0.06690603866955518 0.8377916927123791 1.2211431169646128 0.0
H H 0.0640860386695552 0.852861692712379 1.2909131169646129 0.0
C C 0.12037458293914188 0.8750787871931253 1.1487184983965317 0.0
C C 0.17307902685089097 0.9385522599180661 1.2101657093883909 0.0
C C -0.0040756901650141515 0.7222390575979617 1.2463106171894853 0.0
C C -0.06018933878487156 0.6794406320293446 1.190782351329028 0.0
F F -0.08508312806767983 0.7156454478817103 1.109158833236561 0.0
F F -0.027545188304951333 0.6241794280042596 1.1478584144796118 0.0
F F -0.10135748825366474 0.6499191548742285 1.2358887991025993 0.0
N N 0.230169083282409 0.8817324044093415 0.7123851891380177 0.0
N N 0.32079760321160256 0.9690931469847147 0.8913054543829758 0.0
O O 0.1711174950571145 0.9683680600877779 1.00008857282117 0.0
O O 0.19247751999749246 0.8763826211241383 0.9265576436518999 0.0
O O 0.23048821130772432 0.9329780740579156 1.2197457873007873 0.0
O O 0.14054805067293513 0.9925481648739874 1.259268688385865 0.0
Zn Zn 0.22796108270855117 0.9446356572307362 0.8398719944105358 0.0
C C -0.23638183644208907 0.907327546762257 -0.11512498510388608 0.0
H H -0.23526183644208906 0.9578975467622569 -0.1001949851038861 0.0
C C -0.23893758658911785 0.8531713727889337 -0.015483170883951075 0.0
H H -0.24021758658911785 0.8718413727889339 0.053056829116048906 0.0
C C -0.24286905792182323 0.7758036331183299 -0.05312292579839983 0.0
C C -0.24889749647288653 0.7616182898854693 -0.1467344222210976 0.0
H H -0.2514674964728865 0.7111882898854692 -0.16349442222109759 0.0
C C -0.2510805468196192 0.8090038045094299 -0.23027897614129406 0.0
H H -0.2518605468196192 0.7918838045094299 -0.300048976141294 0.0
C C -0.35137606996685294 0.9325544814626805 -0.4876943197399434 0.0
H H -0.32495606996685295 0.8999244814626806 -0.5218643197399435 0.0
C C -0.424098270706006 0.9475472498715496 -0.5290877368736551 0.0
H H -0.4429782707060059 0.9206172498715496 -0.589647736873655 0.0
C C -0.46885761282292854 0.9978092297324642 -0.487760993420641 0.0
C C -0.4280075004145788 1.0420614072618513 -0.38111960689119273 0.0
H H -0.4537775004145787 1.074231407261851 -0.34517960689119276 0.0
C C -0.3693449010057158 1.028199102865283 -0.35489750801063175 0.0
H H -0.34912490100571575 1.054569102865283 -0.29445750801063164 0.0
C C -0.16485529119811346 0.8947776313538315 -0.4930022276530175 0.0
C C -0.11852608559130996 0.856112377636032 -0.5636933025712025 0.0
C C -0.07465040509164238 0.7984778040666001 -0.5027878120366821 0.0
H H -0.07503040509164235 0.7845578040666001 -0.43175781203668206 0.0
C C -0.03948929357209887 0.7589783033759148 -0.5748769455265927 0.0
H H -0.013869293572098875 0.7186583033759146 -0.5440369455265928 0.0
C C -0.04112770072318815 0.7833313257937903 -0.668674722207329 0.0
C C -0.07367232222137092 0.8482881174853849 -0.7187315029651222 0.0
H H -0.07085232222137093 0.8633581174853848 -0.7885015029651223 0.0
C C -0.12028835159223969 0.8670643605079392 -0.6685503084016784 0.0
C C -0.17440119792734865 0.9277109094404908 -0.7143437567805979 0.0
C C 0.0075446705840522925 0.7346550173967487 -0.7478265963634024 0.0
C C 0.05231816498736036 0.6774824342760158 -0.6810196842291958 0.0
F F 0.09225855963262318 0.726311395508692 -0.6067885433368237 0.0
F F 0.023914314187869667 0.621744339347166 -0.6503756689333232 0.0
F F 0.09863977505786875 0.6485701340688932 -0.7526435327890774 0.0
N N -0.23012189302480518 0.8799996298196358 -0.19320037838113013 0.0
N N -0.323873638904724 0.9662923475284269 -0.40427794120936333 0.0
O O -0.16622768661858178 0.9752377416885115 -0.5039771830690438 0.0
O O -0.19896581332169222 0.8678127046797589 -0.41827582123755885 0.0
O O -0.2285179474397133 0.9427757144665336 -0.7205544691344712 0.0
O O -0.14153781165432622 0.98642955405193 -0.7566764815995042 0.0
Zn Zn -0.2188716436187424 0.9554002715786326 -0.3304793651777924 0.0
C C 0.744367401628993 1.4041003080688848 0.6217460636459666 0.0
H H 0.7432474016289929 1.4546703080688848 0.6068160636459666 0.0
C C 0.7369700686997801 1.3564701663661392 0.5248926707745784 0.0
H H 0.73825006869978 1.3751401663661391 0.4563526707745783 0.0
C C 0.7490464418076577 1.2815390909709716 0.5396804537128891 0.0
C C 0.7423006028455408 1.255115491961496 0.6472154527721753 0.0
H H 0.7448706028455406 1.204685491961496 0.6639754527721753 0.0
C C 0.7397633150359803 1.2959212156567896 0.7236594838750993 0.0
H H 0.7405433150359801 1.2788012156567894 0.7934294838750993 0.0
C C 0.8440149045835572 1.4359879722411748 0.9795614394897335 0.0
H H 0.8175949045835571 1.4033579722411746 1.0137314394897334 0.0
C C 0.9188047548414305 1.4421825544968516 1.012818824911391 0.0
H H 0.9376847548414304 1.4152525544968517 1.073378824911391 0.0
C C 0.9617954903631153 1.5004005078648375 0.9844391944725609 0.0
C C 0.9390886915371335 1.5281203992338326 0.8945039652066628 0.0
H H 0.9648586915371336 1.5602903992338326 0.8585639652066627 0.0
C C 0.8544393094119627 1.5264692323050388 0.8453362540036174 0.0
H H 0.8342193094119625 1.5528392323050386 0.7848962540036174 0.0
C C 0.6676031307933185 1.395337494972107 0.9946242464210788 0.0
C C 0.6195787597234966 1.357212548077762 1.0539464845826618 0.0
C C 0.5742037903739537 1.2938000708510806 1.0067228929751801 0.0
H H 0.5745837903739537 1.279880070851081 0.9356928929751801 0.0
C C 0.5404097487961652 1.2617028670573334 1.0810553306462456 0.0
H H 0.5147897487961652 1.2213828670573335 1.0502153306462458 0.0
C C 0.5348475012768431 1.2811360296418894 1.175489527717094 0.0
C C 0.5741510704756276 1.3283865541366633 1.2192928150528763 0.0
H H 0.5713310704756278 1.3434565541366632 1.2890628150528767 0.0
C C 0.6144996147279878 1.376456989665416 1.156400030047127 0.0
C C 0.6708509846938517 1.4289707515723802 1.2145325892913106 0.0
C C 0.49726052150878036 1.2258490793110122 1.2460359752833383 0.0
C C 0.4376852318193474 1.1795074551989082 1.1923596616292822 0.0
F F 0.4065511513882816 1.2221826110016347 1.1184251648105852 0.0
F F 0.4778471197469657 1.1237983580065671 1.1503915263538758 0.0
F F 0.39923531516921634 1.1483425373639682 1.2417381338760296 0.0
N N 0.7333338432821526 1.378201306945043 0.7083471447032678 0.0
N N 0.8190360470019451 1.4722814004354485 0.8982853994972421 0.0
O O 0.6815862526986101 1.4736928834061853 1.001384612428194 0.0
O O 0.684470536068317 1.3758219467868023 0.9171538643967737 0.0
O O 0.7265775860182967 1.4225555146511524 1.2144799194548823 0.0
O O 0.6433198595455005 1.4922208940124637 1.262563771427033 0.0
Zn Zn 0.7281866699053272 1.4465559963065244 0.836053147566169 0.0
C C 0.25646210124920577 1.3884274822035647 -0.10656878073449842 0.0
H H 0.2575821012492057 1.4389974822035647 -0.09163878073449842 0.0
C C 0.2582564213099478 1.3502868318749386 -0.019838420913030556 0.0
H H 0.25697642130994786 1.3689568318749386 0.048701579086969427 0.0
C C 0.2550656433036186 1.2875204016925013 -0.03696173614945874 0.0
C C 0.2513242837542161 1.2535498368488516 -0.15349807485147626 0.0
H H 0.24875428375421602 1.2031198368488518 -0.17025807485147623 0.0
C C 0.2605917408438488 1.3049508550202797 -0.22079339110265056 0.0
H H 0.2598117408438488 1.2878308550202795 -0.2905633911026505 0.0
C C 0.14936114373081188 1.4404048765126602 -0.47303835634165176 0.0
H H 0.1757811437308119 1.40777487651266 -0.5072083563416518 0.0
C C 0.08124315745397462 1.4472727825014284 -0.5109969566453367 0.0
H H 0.0623631574539746 1.4203427825014285 -0.5715569566453367 0.0
C C 0.0325194798584141 1.4951998844295018 -0.4731962618975204 0.0
C C 0.059517590582313165 1.5315263538145516 -0.39350149924609296 0.0
H H 0.03374759058231316 1.5636963538145516 -0.35756149924609304 0.0
C C 0.13730781473105416 1.517441866208803 -0.340274815778358 0.0
H H 0.15752781473105418 1.5438118662088027 -0.27983481577835795 0.0
C C 0.34272920336906343 1.406906426481968 -0.48975920938063167 0.0
C C 0.3744836851194004 1.3495432315154365 -0.5572907151136702 0.0
C C 0.4165414810354536 1.290092794763357 -0.5171206751167292 0.0
H H 0.4161614810354536 1.2761727947633572 -0.4460906751167292 0.0
C C 0.4651543092208062 1.2609952209519586 -0.5764781794631125 0.0
H H 0.4907743092208063 1.2206752209519587 -0.5456381794631125 0.0
C C 0.45771062577598537 1.2823619080215856 -0.670036550133471 0.0
C C 0.42690164478685305 1.3410954786349387 -0.7263966211310793 0.0
H H 0.42972164478685293 1.3561654786349386 -0.7961666211310794 0.0
C C 0.3751365409868584 1.3807671280474312 -0.6616455897262569 0.0
C C 0.33562016242118886 1.4287166601470374 -0.7191680426456283 0.0
C C 0.5050525904878391 1.2284944387086978 -0.7512764805967465 0.0
C C 0.5464718261114552 1.1835020982748263 -0.693376829678937 0.0
F F 0.585494387698898 1.220372883315132 -0.6156162160200576 0.0
F F 0.5292605514613697 1.1189301058693573 -0.647698378055179 0.0
F F 0.5933945437653508 1.1415514238387285 -0.7450049101753683 0.0
N N 0.2560707073125161 1.3768867659938049 -0.203052310144699 0.0
N N 0.17421542139272495 1.4806690083541867 -0.3904578734509864 0.0
O O 0.323863330150116 1.4632652430130164 -0.5057130510583194 0.0
O O 0.30254172736132234 1.3700983304179906 -0.4337779179680941 0.0
O O 0.272118866057036 1.4228637941737607 -0.7171872891284486 0.0
O O 0.35769022736038425 1.48756231702395 -0.7676334487054544 0.0
Zn Zn 0.2717802400369228 1.4416440082093442 -0.32786038698422193 0.0
C C -0.24726732349815905 -0.8984055225582468 -0.6132859582699339 0.0
H H -0.24614732349815902 -0.9489755225582467 -0.5983559582699339 0.0
C C -0.2534057748078601 -0.8520370283235746 -0.5315260106313047 0.0
H H -0.25468577480786014 -0.8707070283235748 -0.4629860106313046 0.0
C C -0.2509514676406262 -0.7876075338176171 -0.5463983406994388 0.0
C C -0.24414297488236947 -0.7524796658521749 -0.6313207217310618 0.0
H H -0.24671297488236948 -0.7020496658521749 -0.6480807217310618 0.0
C C -0.23870832243831994 -0.805135014511545 -0.7266259195523812 0.0
H H -0.2394883224383199 -0.788015014511545 -0.7963959195523812 0.0
C C -0.3509386614345466 -0.9357640766328276 -0.9956693318503291 0.0
H H -0.3245186614345466 -0.9031340766328276 -1.0298393318503292 0.0
C C -0.4163578783100944 -0.9365570564816316 -1.0275919591226332 0.0
H H -0.4352378783100943 -0.9096270564816316 -1.0881519591226332 0.0
C C -0.46202611296073715 -0.9967482675414439 -0.9856151369228906 0.0
C C -0.42458420136107117 -1.0218656613377508 -0.8858057015259445 0.0
H H -0.45035420136107107 -1.0540356613377506 -0.8498657015259444 0.0
C C -0.3655816958482894 -1.0149344161198042 -0.8431829287606075 0.0
H H -0.3453616958482894 -1.0413044161198042 -0.7827429287606074 0.0
C C -0.16756524543047047 -0.8997511846551314 -0.9842418437631438 0.0
C C -0.11837793151996036 -0.8529506744881502 -1.0579120692833373 0.0
C C -0.0793246649610558 -0.8000302505352094 -1.0091056652631833 0.0
H H -0.07970466496105579 -0.7861102505352093 -0.9380756652631834 0.0
C C -0.03835238596960121 -0.7600190025475331 -1.0820188015919945 0.0
H H -0.012732385969601202 -0.719699002547533 -1.0511788015919945 0.0
C C -0.03754254553007739 -0.7716914241246424 -1.173640349277486 0.0
C C -0.07101022680686199 -0.8386254412478451 -1.2128340221503031 0.0
H H -0.06819022680686201 -0.8536954412478449 -1.2826040221503034 0.0
C C -0.11393543918971534 -0.8783511094140829 -1.162575386537115 0.0
C C -0.17336058159900106 -0.9408854149626085 -1.227117384332049 0.0
C C -0.0056731128525518175 -0.7255680809995538 -1.2526136861462327 0.0
C C 0.05058973490702369 -0.6805981186178066 -1.1813307619449729 0.0
F F 0.10303998012867578 -0.7160700985617766 -1.109306444547246 0.0
F F 0.033011661038609 -0.6296520587801666 -1.1274637813618855 0.0
F F 0.0908573270457276 -0.6500408998782251 -1.257700074825524 0.0
N N -0.2330768414786185 -0.8707147971698806 -0.702778824593419 0.0
N N -0.3157998610851193 -0.9661121714008513 -0.8898996502240599 0.0
O O -0.1677612650105446 -0.9672419172271001 -1.0007759516248076 0.0
O O -0.1848664729070714 -0.8577839106498065 -0.917459958600725 0.0
O O -0.2281924734317847 -0.9219290984191449 -1.2085947708478686 0.0
O O -0.1508077738143784 -0.9863067915510392 -1.2545422628203964 0.0
Zn Zn -0.22766880544925563 -0.9465613895987623 -0.8379255757340133 0.0
C C 0.23907870524991834 -0.9059150997027735 0.10321633869608922 0.0
H H 0.23795870524991833 -0.9564850997027735 0.08828633869608922 0.0
C C 0.24835668538968272 -0.8567939633283869 0.030003274232381735 0.0
H H 0.2496366853896827 -0.8754639633283869 -0.03853672576761825 0.0
C C 0.2451884044231446 -0.7758173307741574 0.037469722523374646 0.0
C C 0.2539163080338054 -0.7548797179942198 0.15664385343257012 0.0
H H 0.25648630803380534 -0.7044497179942197 0.17340385343257014 0.0
C C 0.24616030708992964 -0.8133522148594626 0.2262559531223155 0.0
H H 0.24694030708992956 -0.7962322148594626 0.29602595312231544 0.0
C C 0.35447152137881643 -0.9312195808628684 0.4733185038076598 0.0
H H 0.32805152137881644 -0.8985895808628686 0.5074885038076598 0.0
C C 0.4139105661463091 -0.94939696499188 0.5313598002934397 0.0
H H 0.43279056614630906 -0.9224669649918799 0.5919198002934396 0.0
C C 0.4570142834024669 -0.99975847114311 0.4800629016938751 0.0
C C 0.42636925228514316 -1.0304007282238663 0.38727727352337504 0.0
H H 0.4521392522851431 -1.0625707282238661 0.35133727352337507 0.0
C C 0.369596842744779 -1.01996099919284 0.3495063996151214 0.0
H H 0.349376842744779 -1.04633099919284 0.28906639961512137 0.0
C C 0.16567002409619502 -0.8940431878315548 0.4913288127181382 0.0
C C 0.12405567727003906 -0.8585070072507563 0.5678759014795595 0.0
C C 0.08896564386748843 -0.7986100843673758 0.5237779458201083 0.0
H H 0.0893456438674884 -0.7846900843673759 0.4527479458201082 0.0
C C 0.045249486928070036 -0.761560119000589 0.5724391140039146 0.0
H H 0.019629486928070043 -0.7212401190005888 0.5415991140039146 0.0
C C 0.03547880335796016 -0.7790274547154491 0.6658810526515162 0.0
C C 0.07377172457690144 -0.8473183496853247 0.7256857107311836 0.0
H H 0.07095172457690145 -0.8623883496853245 0.7954557107311838 0.0
C C 0.1236982943650022 -0.8863285584650917 0.6540226400392529 0.0
C C 0.15742684384022299 -0.942097159454771 0.7124099860537904 0.0
C C 0.005108300556968798 -0.7288672713569994 0.7536002647871443 0.0
C C -0.05353849294455217 -0.6753196830409369 0.696344366452423 0.0
F F -0.09709162844622289 -0.724601455717291 0.6005633206642437 0.0
F F -0.025349278702746454 -0.6294674855073388 0.6317135327772888 0.0
F F -0.09769299451886075 -0.6551750880353056 0.745033844961605 0.0
N N 0.23508768118645867 -0.8766557770392257 0.20672710783286083 0.0
N N 0.3264309970242242 -0.9653337323731951 0.4039184948507411 0.0
O O 0.167205258450497 -0.9819603020070559 0.49604803716935797 0.0
O O 0.1900747293069254 -0.8744077914820897 0.4222662283921048 0.0
O O 0.23368616130909856 -0.9355045027508361 0.7106526059048097 0.0
O O 0.14655514349152485 -0.9818303880932683 0.7767176983010264 0.0
Zn Zn 0.22355395877472342 -0.9508906547555976 0.3394130786136208 0.0
C C 0.2546097539239236 -0.3902375433019845 -0.6149807254326352 0.0
H H 0.2557297539239236 -0.4408075433019844 -0.6000507254326352 0.0
C C 0.25442550477289727 -0.34138639396213677 -0.5266091610900743 0.0
H H 0.2531455047728974 -0.3600563939621368 -0.45806916109007423 0.0
C C 0.2535082737210358 -0.272820674158852 -0.5350955916313039 0.0
C C 0.2592712681931615 -0.24887816802198123 -0.645851553195163 0.0
H H 0.2567012681931614 -0.19844816802198123 -0.662611553195163 0.0
C C 0.264712430411848 -0.30210069332878775 -0.7178232341333035 0.0
H H 0.26393243041184794 -0.2849806933287877 -0.7875932341333035 0.0
C C 0.15325423569925686 -0.4337136092721153 -0.9690490355181057 0.0
H H 0.1796742356992569 -0.40108360927211534 -1.0032190355181057 0.0
C C 0.08321567971567569 -0.4439342935645783 -1.025994099309093 0.0
H H 0.06433567971567566 -0.4170042935645783 -1.0865540993090927 0.0
C C 0.03564131812556358 -0.4979227071596526 -0.9824754957421153 0.0
C C 0.07326537007592894 -0.5272280686681282 -0.8848254550450799 0.0
H H 0.04749537007592893 -0.5593980686681279 -0.8488854550450798 0.0
C C 0.1353540630622946 -0.5171813809462052 -0.864097055399418 0.0
H H 0.15557406306229463 -0.5435513809462053 -0.8036570553994179 0.0
C C 0.33217878174089405 -0.39549380273929763 -0.9815021664058341 0.0
C C 0.37907920930027894 -0.3526202651791505 -1.0535508041528998 0.0
C C 0.4216473720252302 -0.29972166753681767 -1.0077532508812919 0.0
H H 0.4212673720252303 -0.2858016675368177 -0.9367232508812918 0.0
C C 0.4578197281706885 -0.2561415921386462 -1.085842424908872 0.0
H H 0.4834397281706885 -0.21582159213864616 -1.055002424908872 0.0
C C 0.46534780130423 -0.2731625851528987 -1.1859080342522308 0.0
C C 0.4181405551752576 -0.3430774117865991 -1.2345069777981001 0.0
H H 0.4209605551752576 -0.35814741178659903 -1.3042769777981005 0.0
C C 0.38672365485981264 -0.38176749945373645 -1.1531056117238074 0.0
C C 0.3236684712557262 -0.43211315120027266 -1.2210291469661962 0.0
C C 0.4938610497862412 -0.22348392649595505 -1.2589236602459655 0.0
C C 0.5555780595772908 -0.18679752704316238 -1.1910863167058265 0.0
F F 0.6009998861174529 -0.2222212857290415 -1.1093896790309394 0.0
F F 0.5276408658517356 -0.11762587355843616 -1.1451518579678666 0.0
F F 0.5942381385886774 -0.1479212640073947 -1.2447688192754935 0.0
N N 0.264060297762823 -0.3804642205105603 -0.6996179430071858 0.0
N N 0.18155514341018425 -0.4636524268129519 -0.8958850744544931 0.0
O O 0.3366246344933022 -0.472606578964566 -0.9983797064009471 0.0
O O 0.30918685589790984 -0.35771871539323913 -0.9221686609885376 0.0
O O 0.2788036228854629 -0.43542612030658695 -1.2078191247317498 0.0
O O 0.3519140364087651 -0.47637483748730114 -1.2569344344064686 0.0
Zn Zn 0.2788763858833462 -0.44517976818765187 -0.8315549199035003 0.0
C C 0.7352993873385768 -0.4060957181228151 0.1109600214086432 0.0
H H 0.7341793873385767 -0.45666571812281503 0.0960300214086432 0.0
C C 0.7384503925802842 -0.3515537131743804 0.01992757306941722 0.0
H H 0.7397303925802843 -0.37022371317438046 -0.048612426930582764 0.0
C C 0.748553474349965 -0.26749171672222055 0.04668126780567285 0.0
C C 0.7474484312972711 -0.25554728371033614 0.16074546134457618 0.0
H H 0.7500184312972711 -0.2051172837103361 0.17750546134457618 0.0
C C 0.7360719072110794 -0.31317879882362615 0.21495446883433628 0.0
H H 0.7368519072110793 -0.2960587988236261 0.2847244688343363 0.0
C C 0.8558998214454356 -0.4305182104326715 0.48288872926405724 0.0
H H 0.8294798214454355 -0.3978882104326715 0.5170587292640573 0.0
C C 0.9176079330380931 -0.45622752830130847 0.5289014676656071 0.0
H H 0.9364879330380931 -0.4292975283013085 0.589461467665607 0.0
C C 0.9621610880062786 -0.5048888181475526 0.4821962744210592 0.0
C C 0.9261912803465143 -0.5313188906435073 0.3956311354045936 0.0
H H 0.9519612803465145 -0.563488890643507 0.3596911354045937 0.0
C C 0.8726216804009218 -0.5151231763774966 0.35396994050376507 0.0
H H 0.8524016804009218 -0.5414931763774966 0.29352994050376496 0.0
C C 0.6694217782108578 -0.3961613078788956 0.4827951437431974 0.0
C C 0.6185214506531036 -0.36037684455007885 0.5574873364813044 0.0
C C 0.5859228462310443 -0.29881177369109024 0.5071466397684248 0.0
H H 0.5863028462310441 -0.28489177369109037 0.4361166397684247 0.0
C C 0.5410694590778289 -0.25027078440286926 0.575861642446421 0.0
H H 0.5154494590778289 -0.2099507844028693 0.5450216424464209 0.0
C C 0.5366413828864975 -0.28743038656822345 0.675507978581768 0.0
C C 0.5750252263574634 -0.33961484430731526 0.7205143645587311 0.0
H H 0.5722052263574635 -0.35468484430731523 0.7902843645587313 0.0
C C 0.6229996681916984 -0.3820180311034773 0.6648563149522675 0.0
C C 0.6685128446069472 -0.43912304725076934 0.7288598949796431 0.0
C C 0.5007115087043339 -0.22402303673963114 0.7596438368282408 0.0
C C 0.44711228704278 -0.17464314940230535 0.6895819197304731 0.0
F F 0.40671265423840747 -0.2129679481809587 0.6003330010320155 0.0
F F 0.4779601557119969 -0.13002857076848048 0.6381977368134848 0.0
F F 0.3969899589128244 -0.15691259767746 0.7500206252112498 0.0
N N 0.7422274273721898 -0.38057167720716606 0.21433335290962857 0.0
N N 0.8202308601403785 -0.4751267573850861 0.38820697197068676 0.0
O O 0.6710601742220028 -0.4686340414230011 0.49614899809402574 0.0
O O 0.6951157410556592 -0.36462094099488385 0.4353353103522834 0.0
O O 0.7262981093004208 -0.4288051732610543 0.7189280543458257 0.0
O O 0.6419044804436457 -0.49165087995353873 0.7532275814005466 0.0
Zn Zn 0.7195921102056276 -0.4498322388478933 0.318753988420679 0.0
