_cell_length_a 19.5206
_cell_length_b 17.9856
_cell_length_c 12.6054
_cell_angle_alpha 90.0
_cell_angle_beta 99.0355
_cell_angle_gamma 90.0
_symmetry_space_group_name_H-M         'P 1'
_symmetry_Int_Tables_number            1
loop_
_symmetry_equiv_pos_as_xyz
   'x, y, z'
                         
loop_
_atom_site_label
_atom_site_type_symbol
_atom_site_fract_x 
_atom_site_fract_y
_atom_site_fract_z
_atom_site_charge
C C 0.23076710323948116 0.9006884935216214 0.600082995792186 0.0
H H 0.22964710323948112 0.9512584935216214 0.585152995792186 0.0
C C 0.23355106368561615 0.8537005171722419 0.5205168332569298 0.0
H H 0.23483106368561618 0.872370517172242 0.4519768332569297 0.0
C C 0.23868443333237338 0.7818357719355785 0.5431470170591832 0.0
C C 0.24845261258684176 0.7531746034414543 0.6540274833032361 0.0
H H 0.25102261258684183 0.7027446034414543 0.6707874833032361 0.0
C C 0.24702876831487244 0.8056144170748467 0.7157081028694021 0.0
H H 0.24780876831487245 0.7884944170748467 0.7854781028694021 0.0
C C 0.35090308773422557 0.9347628086657594 0.9929106831313901 0.0
H H 0.3244830877342255 0.9021328086657596 1.0270806831313901 0.0
C C 0.4200852813519614 0.9442067326656615 1.0199444394503225 0.0
H H 0.43896528135196133 0.9172767326656615 1.0805044394503223 0.0
C C 0.4644538669592742 0.988487472719734 0.987599489163201 0.0
C C 0.42843290835553827 1.0322236263322857 0.8831241465302084 0.0
H H 0.4542029083555381 1.0643936263322855 0.8471841465302083 0.0
C C 0.3697144675378552 1.016505390946085 0.8578361129439609 0.0
H H 0.3494944675378552 1.042875390946085 0.7973961129439608 0.0
C C 0.17029327746022913 0.8922547689800264 0.9840475239029419 0.0
C C 0.12592841653531633 0.85046506133963 1.0504798726058673 0.0
C C 0.08976773700807286 0.8002184543946063 1.0070440248100363 0.0
H H 0.09014773700807284 0.7862984543946062 0.9360140248100364 0.0
C C 0.03502356823111389 0.7673185576917498 1.0635812549765862 0.0
H H 0.00940356823111389 0.7269985576917498 1.0327412549765862 0.0
C C 0.0431801331435666 0.7700419378589606 1.1849568405975412 0.0
C C 0.0845293978911828 0.8370684069318562 1.2338590294291503 0.0
H H 0.08170939789118283 0.852138406931856 1.3036290294291506 0.0
C C 0.12159496767776072 0.878588389154041 1.1595802583771444 0.0
C C 0.16603429540095593 0.9397447331281032 1.2125667874468984 0.0
C C -0.005182841010882682 0.7387906855830424 1.2397304929688178 0.0
C C -0.060369324559503376 0.6851697299891767 1.183862723510336 0.0
F F -0.08963645272811083 0.7228178941147054 1.103371306806084 0.0
F F -0.025350343863863985 0.6322221723838571 1.141351832552297 0.0
F F -0.08727000144722469 0.64008079052083 1.2552790632848345 0.0
N N 0.2359831082130552 0.8788900816725482 0.7103317278932233 0.0
N N 0.32852817120059696 0.9739618115137992 0.8943450101506111 0.0
O O 0.17336908341609628 0.964072402693928 0.9912715384760341 0.0
O O 0.19096406057713944 0.859469052748695 0.9264593793169931 0.0
O O 0.2348102633172493 0.9220370376177464 1.220743181565353 0.0
O O 0.1424837144917382 0.983994299538993 1.2599030356255292 0.0
Zn Zn 0.2252875780503427 0.9478312297253036 0.8303366527035194 0.0
C C -0.23923978040534566 0.8914803281892683 -0.09740335758995484 0.0
H H -0.23811978040534565 0.9420503281892683 -0.08247335758995485 0.0
C C -0.2365338608608631 0.8487812392890857 -0.021570284984510114 0.0
H H -0.23781386086086312 0.8674512392890857 0.04696971501548987 0.0
C C -0.24392187680331692 0.7827995575002981 -0.03581044384507304 0.0
C C -0.24758346070536197 0.757881193188415 -0.13365757519792035 0.0
H H -0.25015346070536193 0.707451193188415 -0.15041757519792032 0.0
C C -0.24682750104147652 0.8105404209684909 -0.21827778251932847 0.0
H H -0.24760750104147647 0.7934204209684909 -0.28804778251932844 0.0
C C -0.34698685945007285 0.93629743607947 -0.4891611611780348 0.0
H H -0.3205668594500729 0.9036674360794701 -0.5233311611780349 0.0
C C -0.4131115731349636 0.9397355107040203 -0.5203818119258091 0.0
H H -0.4319915731349635 0.9128055107040203 -0.5809418119258091 0.0
C C -0.45392675991911285 0.992541781482712 -0.47621760193950713 0.0
C C -0.4304350025570631 1.0327335455067796 -0.3844975533754595 0.0
H H -0.456205002557063 1.0649035455067795 -0.3485575533754595 0.0
C C -0.3600071609823468 1.0162070060164923 -0.34209622063258066 0.0
H H -0.3397871609823468 1.0425770060164923 -0.28165622063258056 0.0
C C -0.16339799459504462 0.8990616904320992 -0.49888614981338447 0.0
C C -0.12200336417107384 0.8610725015053552 -0.555163788271329 0.0
C C -0.08398981276943888 0.8028036650353705 -0.5190670880851745 0.0
H H -0.08436981276943886 0.7888836650353706 -0.44803708808517445 0.0
C C -0.05039127185119022 0.7698742198487426 -0.5792684282718613 0.0
H H -0.02477127185119022 0.7295542198487426 -0.5484284282718613 0.0
C C -0.03441082353730418 0.7779165369083445 -0.6728747248739949 0.0
C C -0.08366511258308215 0.833257110756005 -0.7254580138669561 0.0
H H -0.08084511258308216 0.8483271107560049 -0.7952280138669563 0.0
C C -0.11913226999778709 0.8710473105882145 -0.6718182568104684 0.0
C C -0.1616209151018456 0.9423450161356067 -0.7142627176910183 0.0
C C -0.0026450872932177556 0.7261186554756588 -0.7512717654680494 0.0
C C 0.05728607150555211 0.6773028307707883 -0.6959682009270887 0.0
F F 0.09877909531797587 0.7097986945923566 -0.5959301609885859 0.0
F F 0.024651731594913913 0.6257308144681136 -0.6458237052828263 0.0
F F 0.09300500517706886 0.658823039104917 -0.7490666505888914 0.0
N N -0.24156157826825525 0.8725040207526404 -0.2105556267760237 0.0
N N -0.32970728928028065 0.9723516855090282 -0.39047915401921507 0.0
O O -0.16889804821271226 0.9792811609837876 -0.5092390829668696 0.0
O O -0.18761571714214914 0.8638133680244575 -0.4270768254372413 0.0
O O -0.2250037684458761 0.9270191549391728 -0.7203043408799423 0.0
O O -0.14872541151231677 0.9926986035810829 -0.7742312563916613 0.0
Zn Zn -0.21616177631913064 0.9511653933436738 -0.3304650281997839 0.0
C C 0.7479625063113193 1.3931160738414174 0.607422354695801 0.0
H H 0.7468425063113193 1.4436860738414172 0.5924923546958009 0.0
C C 0.7439696486703338 1.3470218260914997 0.513687591348215 0.0
H H 0.7452496486703338 1.3656918260914996 0.44514759134821497 0.0
C C 0.7535242348502961 1.270423563355695 0.5574654696353384 0.0
C C 0.746966388420242 1.2612570913164944 0.6353667706834565 0.0
H H 0.7495363884202417 1.2108270913164947 0.6521267706834566 0.0
C C 0.7441392481893809 1.311752408568096 0.7319089917327665 0.0
H H 0.7449192481893809 1.294632408568096 0.8016789917327665 0.0
C C 0.8570752174569202 1.4340257948655564 1.0001274193641647 0.0
H H 0.8306552174569201 1.4013957948655562 1.0342974193641647 0.0
C C 0.9165419527281228 1.4548077824557513 1.0270907698588652 0.0
H H 0.9354219527281228 1.4278777824557514 1.0876507698588649 0.0
C C 0.9636445236393055 1.4995667595661217 0.9719570594057168 0.0
C C 0.934403680056558 1.5238341983029182 0.9019452325440651 0.0
H H 0.9601736800565581 1.5560041983029183 0.866005232544065 0.0
C C 0.8602202412294208 1.5282707817374563 0.8543621442957445 0.0
H H 0.8400002412294206 1.5546407817374561 0.7939221442957444 0.0
C C 0.6721257107915707 1.4062443649619123 0.987320865269919 0.0
C C 0.6253779920308709 1.3484025299524955 1.0618900168435603 0.0
C C 0.5872968539258573 1.292862975311378 1.010680177283104 0.0
H H 0.5876768539258571 1.2789429753113783 0.9396501772831041 0.0
C C 0.5404692524270449 1.2617528630403008 1.062291978866 0.0
H H 0.5148492524270449 1.2214328630403009 1.0314519788660002 0.0
C C 0.5359541400458165 1.2827038897716168 1.173907536736572 0.0
C C 0.5853388719233598 1.3372359461237369 1.2231364773397713 0.0
H H 0.5825188719233598 1.3523059461237368 1.2929064773397714 0.0
C C 0.6256528781559294 1.3785306141131948 1.172289483004153 0.0
C C 0.6701173422671379 1.4322998811257037 1.2282208678138662 0.0
C C 0.49905723446857375 1.2391418219954866 1.255116982790466 0.0
C C 0.447731963041663 1.187696678086071 1.1874167699139688 0.0
F F 0.40733442902904476 1.2104015903796648 1.114083768099816 0.0
F F 0.4781301080257772 1.1157620633172511 1.1409660372943267 0.0
F F 0.4015166758683022 1.1540606633590447 1.238080141550246 0.0
N N 0.7336437471536463 1.3761219069776702 0.6919782413164117 0.0
N N 0.8223560213305081 1.4766269105042895 0.9017514242427581 0.0
O O 0.6767204695705861 1.4697749365116253 0.9994355003571007 0.0
O O 0.6951929039182373 1.3638881783115677 0.9319135815471099 0.0
O O 0.7390997395499666 1.426119870924327 1.2238699811674894 0.0
O O 0.649562578257814 1.4744339801576878 1.271718231404814 0.0
Zn Zn 0.7235647110080128 1.449673670200525 0.8231815113699011 0.0
C C 0.25744641973598326 1.4039656412355104 -0.11992484469263177 0.0
H H 0.25856641973598327 1.4545356412355104 -0.1049948446926318 0.0
C C 0.2584742727940221 1.3394446949944083 -0.024579532457252334 0.0
H H 0.2571942727940221 1.3581146949944083 0.04396046754274764 0.0
C C 0.24332081320994142 1.2789799393731824 -0.05197823924623833 0.0
C C 0.2524251790239665 1.2478151057133464 -0.1417170118476513 0.0
H H 0.2498551790239664 1.1973851057133467 -0.15847701184765126 0.0
C C 0.2668424768949394 1.3039398336777142 -0.22092400907043672 0.0
H H 0.26606247689493945 1.286819833677714 -0.2906940090704367 0.0
C C 0.14846682409832004 1.443435869975726 -0.4927059695852324 0.0
H H 0.17488682409832004 1.4108058699757258 -0.5268759695852324 0.0
C C 0.08249360509240074 1.4510440602953056 -0.5316454666657476 0.0
H H 0.06361360509240072 1.4241140602953057 -0.5922054666657476 0.0
C C 0.041320922576907095 1.4901070196373327 -0.4668165013559839 0.0
C C 0.0629879240811752 1.536949611919716 -0.38578859143143746 0.0
H H 0.037217924081175205 1.569119611919716 -0.34984859143143754 0.0
C C 0.13896829486722606 1.5213722509048566 -0.3357529685119998 0.0
H H 0.15918829486722608 1.5477422509048564 -0.27531296851199977 0.0
C C 0.33111098028347197 1.4144543970479775 -0.48819427037953994 0.0
C C 0.378810104590433 1.360038689043399 -0.5636149251248174 0.0
C C 0.41557726975742043 1.304861448965395 -0.5111339336709337 0.0
H H 0.4151972697574205 1.2909414489653952 -0.4401039336709336 0.0
C C 0.4524934249758558 1.2682920987807265 -0.5818274983580881 0.0
H H 0.4781134249758558 1.2279720987807268 -0.5509874983580881 0.0
C C 0.45415706947634543 1.274932218167893 -0.6868800254189755 0.0
C C 0.42448554366306307 1.335155540183445 -0.7204762232529203 0.0
H H 0.4273055436630628 1.3502255401834449 -0.7902462232529204 0.0
C C 0.3769775171086275 1.384310874372763 -0.6699985602782429 0.0
C C 0.33689188549533233 1.4415107017927835 -0.7165111928808214 0.0
C C 0.4994454258629381 1.233788726018573 -0.7476678343891775 0.0
C C 0.5636234265712838 1.173572620583517 -0.6851465499855863 0.0
F F 0.5998020064463213 1.2194425777994766 -0.6089817436843451 0.0
F F 0.5292662959534807 1.121326245643901 -0.6466429940364234 0.0
F F 0.5977854345409236 1.151408589982535 -0.7440686669912329 0.0
N N 0.2685086378204705 1.3849377850662166 -0.20661721723834903 0.0
N N 0.17064540924327753 1.473367747534013 -0.40620121934676723 0.0
O O 0.3350099895747475 1.4733010085108778 -0.49588751255443175 0.0
O O 0.31266601089116114 1.3699614107207587 -0.4360599652296184 0.0
O O 0.265220175434138 1.4374818892754482 -0.7248282455491294 0.0
O O 0.34942273396164686 1.4881890618035498 -0.7658925966323419 0.0
Zn Zn 0.2739567042549147 1.4499974996771203 -0.3243180484464681 0.0
C C -0.2428775507788062 -0.9011720890360085 -0.6038060632573274 0.0
H H -0.24175755077880617 -0.9517420890360084 -0.5888760632573274 0.0
C C -0.24867405994433797 -0.8398003564644954 -0.5215515834167892 0.0
H H -0.249954059944338 -0.8584703564644954 -0.4530115834167892 0.0
C C -0.25153361947165803 -0.7746514524083244 -0.5454646630062606 0.0
C C -0.25239055861467036 -0.7559997148696187 -0.6566653566795466 0.0
H H -0.2549605586146704 -0.7055697148696187 -0.6734253566795466 0.0
C C -0.24785748610606728 -0.8076554226383117 -0.7295403484003525 0.0
H H -0.24863748610606726 -0.7905354226383116 -0.7993103484003525 0.0
C C -0.3596870472391056 -0.9393146189172764 -0.9798552478766898 0.0
H H -0.3332670472391056 -0.9066846189172766 -1.0140252478766898 0.0
C C -0.42245373550101184 -0.9511608542049081 -1.0361312902298827 0.0
H H -0.4413337355010118 -0.9242308542049081 -1.0966912902298827 0.0
C C -0.45785128036969186 -0.9962584739340176 -0.9867412030155872 0.0
C C -0.4231243736288466 -1.0342386276632665 -0.8853782297008511 0.0
H H -0.44889437362884643 -1.066408627663266 -0.849438229700851 0.0
C C -0.35935707537859596 -1.0228674193393954 -0.8362669884366271 0.0
H H -0.3391370753785959 -1.0492374193393954 -0.7758269884366269 0.0
C C -0.16586440083881202 -0.905394270798249 -0.9807126101769356 0.0
C C -0.1266865189001716 -0.8509477875625946 -1.0517728707376097 0.0
C C -0.08875808061649175 -0.8022735894250577 -1.0161817571659462 0.0
H H -0.08913808061649174 -0.7883535894250576 -0.9451517571659461 0.0
C C -0.04535343751358808 -0.762350913629363 -1.0867187281771686 0.0
H H -0.019733437513588078 -0.722030913629363 -1.0558787281771687 0.0
C C -0.03925635539689986 -0.7706444936498048 -1.1824386972380578 0.0
C C -0.0827700766423018 -0.837386688963538 -1.2271126185632264 0.0
H H -0.07995007664230182 -0.8524566889635379 -1.2968826185632267 0.0
C C -0.12124776424529617 -0.8836938265149957 -1.1608599527995906 0.0
C C -0.17706471494150747 -0.9324404785093485 -1.2147939339468738 0.0
C C 0.0071948288666839584 -0.7398633857875077 -1.246734690486134 0.0
C C 0.05598518663215895 -0.6758336201972521 -1.1867800620957372 0.0
F F 0.09586936067574645 -0.726885250764677 -1.1132850003477033 0.0
F F 0.03020906371457178 -0.6266635603845678 -1.1231609251484007 0.0
F F 0.09635590695359161 -0.6459159573778567 -1.2563565712808038 0.0
N N -0.2376493874695606 -0.8689216508750398 -0.7125989717989544 0.0
N N -0.315514743337959 -0.9720435566298161 -0.8975074553033038 0.0
O O -0.1725142679527093 -0.9658983143964077 -1.0069409022118712 0.0
O O -0.1955945686720348 -0.8688684054940556 -0.9158423514746377 0.0
O O -0.22596779180073645 -0.9285027022862966 -1.2113599038794707 0.0
O O -0.1341613436010314 -0.9948506604682267 -1.2546585743796335 0.0
Zn Zn -0.2212196600319996 -0.945735409638799 -0.8179611139219524 0.0
C C 0.23860363702442497 -0.8956282273976989 0.09688268743030003 0.0
H H 0.23748363702442496 -0.9461982273976988 0.08195268743030003 0.0
C C 0.24564373555631264 -0.8549703872153378 0.02027462860968897 0.0
H H 0.24692373555631264 -0.873640387215338 -0.04826537139031102 0.0
C C 0.2529583732070362 -0.777751704048338 0.0412617776144514 0.0
C C 0.2548509591469728 -0.7540076381058549 0.15696068446148204 0.0
H H 0.25742095914697277 -0.7035776381058548 0.17372068446148203 0.0
C C 0.2462575257295193 -0.8110956636162276 0.23106527921634754 0.0
H H 0.24703752572951926 -0.7939756636162276 0.3008352792163475 0.0
C C 0.3561174563618349 -0.9452336223608317 0.49505446158257055 0.0
H H 0.3296974563618349 -0.9126036223608319 0.5292244615825706 0.0
C C 0.4152314445339568 -0.9401805042100267 0.5153702387523313 0.0
H H 0.4341114445339567 -0.9132505042100267 0.5759302387523313 0.0
C C 0.46017670291625506 -0.9863651930588937 0.48546681119107826 0.0
C C 0.4341939609335828 -1.024568117413752 0.3915914450581513 0.0
H H 0.4599639609335827 -1.0567381174137516 0.3556514450581514 0.0
C C 0.36754916785328196 -1.0151332373202904 0.34729365414996727 0.0
H H 0.3473291678532819 -1.0415032373202904 0.28685365414996716 0.0
C C 0.16063227207597988 -0.9037362829790981 0.48466843009339955 0.0
C C 0.12719725926339406 -0.8650815629663564 0.5450965716524703 0.0
C C 0.07814288454343145 -0.8013524076522625 0.5195129675655957 0.0
H H 0.07852288454343141 -0.7874324076522624 0.4484829675655956 0.0
C C 0.0369589442896165 -0.7630758806153798 0.5682296458807515 0.0
H H 0.011338944289616503 -0.7227558806153798 0.5373896458807516 0.0
C C 0.043541204129687004 -0.7729310133079349 0.6821804670888361 0.0
C C 0.0856961572956233 -0.8459603451546526 0.7223825654684858 0.0
H H 0.08287615729562331 -0.8610303451546525 0.7921525654684859 0.0
C C 0.11517095621475874 -0.8783030061004408 0.665289098982288 0.0
C C 0.16596860835083047 -0.9396195329269403 0.7235573693204411 0.0
C C 0.0011793648721204774 -0.7362630775376816 0.7599447366293482 0.0
C C -0.0573024699115543 -0.6802876542800517 0.6897003458408966 0.0
F F -0.09706567305473404 -0.7283129002986938 0.6116911794155683 0.0
F F -0.03748769711403436 -0.6176655706394142 0.6361385068519282 0.0
F F -0.1023900358608334 -0.6507978052292969 0.756296081126703 0.0
N N 0.23087139302688725 -0.8822466522132695 0.2071766731420893 0.0
N N 0.32310400897648084 -0.964015201064149 0.3982475011410056 0.0
O O 0.16925945011617177 -0.9633358851849154 0.49053358136606 0.0
O O 0.18875318040936526 -0.8774562949520158 0.4240105271496663 0.0
O O 0.22600359597182257 -0.9325865400816012 0.7259156183095086 0.0
O O 0.14027059169389322 -0.9811453796140325 0.7451107106388196 0.0
Zn Zn 0.21808720238771184 -0.9496630535370784 0.32228524266772474 0.0
C C 0.2578563781869886 -0.3994480791055292 -0.6243140708905218 0.0
H H 0.25897637818698854 -0.4500180791055291 -0.6093840708905218 0.0
C C 0.25733828861711444 -0.34949087495073133 -0.5252469179663779 0.0
H H 0.2560582886171145 -0.36816087495073135 -0.4567069179663779 0.0
C C 0.2483576875391041 -0.2750114426865001 -0.5490003798008539 0.0
C C 0.2508844810638013 -0.25298950975808693 -0.660415245240614 0.0
H H 0.24831448106380127 -0.2025595097580869 -0.677175245240614 0.0
C C 0.2531910508776138 -0.29670630758104855 -0.7203846827691438 0.0
H H 0.2524110508776138 -0.2795863075810485 -0.7901546827691438 0.0
C C 0.14674208176376127 -0.43125541594883626 -0.9779923621384214 0.0
H H 0.17316208176376127 -0.3986254159488363 -1.0121623621384215 0.0
C C 0.07570305547434143 -0.4399792907277119 -1.019763719412416 0.0
H H 0.05682305547434144 -0.41304929072771185 -1.0803237194124158 0.0
C C 0.04081509093655457 -0.5010561617824293 -0.9866588792256991 0.0
C C 0.06842356522845625 -0.5310477939914928 -0.8978305698955584 0.0
H H 0.042653565228456244 -0.5632177939914926 -0.8618905698955583 0.0
C C 0.13065764843526198 -0.5130458059468027 -0.8437326081216444 0.0
H H 0.15087764843526202 -0.5394158059468027 -0.7832926081216443 0.0
C C 0.32725748942470306 -0.3956649235027705 -0.9850007741133454 0.0
C C 0.37259744120356364 -0.35395569637577956 -1.0514712684121932 0.0
C C 0.41797116510734206 -0.30054134471528426 -1.0156300863041383 0.0
H H 0.41759116510734207 -0.28662134471528433 -0.9446000863041383 0.0
C C 0.4574585326420698 -0.26887040788557637 -1.0784190998908816 0.0
H H 0.4830785326420697 -0.22855040788557635 -1.0475790998908816 0.0
C C 0.4659882731218914 -0.2707497890195793 -1.1730018397769366 0.0
C C 0.4279701683000984 -0.3343186072421576 -1.22510750518729 0.0
H H 0.43079016830009836 -0.34938860724215753 -1.29487750518729 0.0
C C 0.3871122366939888 -0.38803315894289553 -1.1586631984500335 0.0
C C 0.3313566744434439 -0.4356045336969309 -1.2067271417512497 0.0
C C 0.5000467888763185 -0.22504520148610688 -1.2393197447964004 0.0
C C 0.558094242060548 -0.18394920579233595 -1.1715997931071476 0.0
F F 0.6025492977825087 -0.22658990227151735 -1.1113104934223548 0.0
F F 0.534191754716042 -0.11933407730166504 -1.1351859816049572 0.0
F F 0.5886672731986854 -0.1548311537010074 -1.2534465241430668 0.0
N N 0.26758782706107337 -0.37505919181745717 -0.6964134005051392 0.0
N N 0.18478934557757332 -0.47934009541796746 -0.8963825669304721 0.0
O O 0.3270620325241942 -0.4793012935487055 -0.9956833246312748 0.0
O O 0.3042351677474785 -0.3583528254540888 -0.9232918287559458 0.0
O O 0.2757973866256533 -0.4364172250248188 -1.2214918694430423 0.0
O O 0.35350513264550754 -0.487246778207087 -1.2500267854391691 0.0
Zn Zn 0.27016726148351583 -0.4441415872714348 -0.8233756751888298 0.0
C C 0.7353218996928822 -0.3916017429581008 0.09578632719635938 0.0
H H 0.7342018996928822 -0.44217174295810074 0.08085632719635938 0.0
C C 0.7343295737386009 -0.3427443027649948 0.021781432034533713 0.0
H H 0.7356095737386009 -0.36141430276499487 -0.04675856796546628 0.0
C C 0.7434940632673598 -0.2675881208059315 0.0497040612760741 0.0
C C 0.736378688825038 -0.24739656957087336 0.14557525235046964 0.0
H H 0.738948688825038 -0.19696656957087336 0.1623352523504696 0.0
C C 0.7308959203822123 -0.29926703259217224 0.2211538041366649 0.0
H H 0.7316759203822123 -0.2821470325921722 0.29092380413666485 0.0
C C 0.8481714550115178 -0.4349122739773043 0.4907193214553324 0.0
H H 0.8217514550115178 -0.4022822739773043 0.5248893214553325 0.0
C C 0.9151105771440677 -0.44786062009266325 0.5112862388373353 0.0
H H 0.9339905771440679 -0.42093062009266324 0.5718462388373352 0.0
C C 0.9583077486045629 -0.4908684145366552 0.4863580586462246 0.0
C C 0.9343640020582826 -0.530097526217677 0.3787629434404293 0.0
H H 0.9601340020582828 -0.5622675262176768 0.34282294344042935 0.0
C C 0.8633731922951058 -0.5166038892841366 0.34380264000864275 0.0
H H 0.8431531922951059 -0.5429738892841366 0.2833626400086427 0.0
C C 0.6688533169583869 -0.40541436459139957 0.48183669266921764 0.0
C C 0.6283193062629645 -0.36603616561077157 0.5544693957483099 0.0
C C 0.5772864391820256 -0.2949048169237158 0.5140830096663098 0.0
H H 0.5776664391820254 -0.2809848169237159 0.4430530096663098 0.0
C C 0.5447284693694583 -0.2645924705713898 0.5749175200228628 0.0
H H 0.5191084693694583 -0.22427247057138974 0.5440775200228628 0.0
C C 0.5330182685249834 -0.26695865154323273 0.6710561058422355 0.0
C C 0.5762616294314643 -0.32956697275618707 0.7131475694692524 0.0
H H 0.5734416294314645 -0.34463697275618704 0.7829175694692525 0.0
C C 0.6217273198650747 -0.38064182617506404 0.6715523707791083 0.0
C C 0.667215960271387 -0.44473767696364797 0.7148410909292181 0.0
C C 0.49477405021860005 -0.2360227796514338 0.7563220678757397 0.0
C C 0.44902463952431504 -0.18778117358526278 0.6836517220810138 0.0
F F 0.41055016544161216 -0.22137342919537484 0.6042530769485704 0.0
F F 0.465735694849984 -0.12126059464935708 0.6363109039978548 0.0
F F 0.4050779650956582 -0.1508783794710369 0.7519279065788369 0.0
N N 0.7319892363723071 -0.37492122223120916 0.21515979372724695 0.0
N N 0.8226383545375583 -0.46703914971564703 0.388942112121404 0.0
O O 0.6711290167699181 -0.4695103544732255 0.5094020398907356 0.0
O O 0.6929155568698008 -0.3699319969071844 0.419226608830938 0.0
O O 0.7344566308908229 -0.4394229280455692 0.7101007945345644 0.0
O O 0.6427782742463987 -0.4778584952555955 0.7548126849028398 0.0
Zn Zn 0.7186890434935852 -0.4507480230320105 0.32525585427014464 0.0
_cell_length_a 19.5206
_cell_length_b 17.9856
_cell_length_c 12.6054
_cell_angle_alpha 90.0
_cell_angle_beta 99.0355
_cell_angle_gamma 90.0
_symmetry_space_group_name_H-M         'P 1'
_symmetry_Int_Tables_number            1
loop_
_symmetry_equiv_pos_as_xyz
   'x, y, z'
                         
loop_
_atom_site_label
_atom_site_type_symbol
_atom_site_fract_x 
_atom_site_fract_y
_atom_site_fract_z
_atom_site_charge
C C 0.24872847613997542 0.8973059205025835 0.616562607174624 0.0
H H 0.2476084761399754 0.9478759205025835 0.6016326071746239 0.0
C C 0.2522324107594468 0.8506352999971226 0.5279790739393714 0.0
H H 0.2535124107594468 0.8693052999971227 0.4594390739393714 0.0
C C 0.24446118679973525 0.7677707699234341 0.5355003766514548 0.0
C C 0.24014302713290978 0.7484663260637712 0.6451613890547303 0.0
H H 0.2427130271329098 0.6980363260637712 0.6619213890547303 0.0
C C 0.2349282795199398 0.8015987629659579 0.7249501814502074 0.0
H H 0.2357082795199398 0.7844787629659579 0.7947201814502074 0.0
C C 0.357255671341621 0.9359880072354805 0.981280384442312 0.0
H H 0.33083567134162095 0.9033580072354807 1.015450384442312 0.0
C C 0.41602663140134094 0.9540364522304707 1.0310960224940984 0.0
H H 0.4349066314013409 0.9271064522304707 1.0916560224940983 0.0
C C 0.4656340217564437 0.9864629532571203 0.9787147590596769 0.0
C C 0.4350460775815878 1.0398161237383288 0.8884708849950894 0.0
H H 0.4608160775815877 1.0719861237383284 0.8525308849950893 0.0
C C 0.360217953361689 1.0205734614300783 0.8556510361180354 0.0
H H 0.339997953361689 1.0469434614300785 0.7952110361180353 0.0
C C 0.16948876943945634 0.8928072073317365 0.9965421769763813 0.0
C C 0.119700721869189 0.8635567616541526 1.0653286817721797 0.0
C C 0.07648994614155383 0.8070837370329751 1.0005239350761004 0.0
H H 0.07686994614155382 0.793163737032975 0.9294939350761005 0.0
C C 0.0447469621774348 0.7524022298251775 1.074473621060109 0.0
H H 0.01912696217743481 0.7120822298251774 1.0436336210601092 0.0
C C 0.04281264330522107 0.7697695552814156 1.1695002515414026 0.0
C C 0.08090835744681439 0.8370368252614332 1.231374758073523 0.0
H H 0.07808835744681443 0.8521068252614331 1.3011447580735234 0.0
C C 0.1262229382701023 0.8753684781383076 1.1582663802127242 0.0
C C 0.17688271807439343 0.9350201209015807 1.2262398792123181 0.0
C C 0.0015233176357802459 0.7328811972267497 1.2560477002358832 0.0
C C -0.046101286224416595 0.6749159042000773 1.1920805564640895 0.0
F F -0.09175402627672181 0.7100364823861338 1.1157838654283732 0.0
F F -0.03588406802041587 0.6275289741926684 1.1401581268979686 0.0
F F -0.09263232123466275 0.649827503775792 1.2569134708654566 0.0
N N 0.24110544220073193 0.8781337166692171 0.6995659030106443 0.0
N N 0.33082489724520914 0.9700428303813075 0.8986484327052279 0.0
O O 0.17086933647888303 0.9668045494676905 1.0066139076506404 0.0
O O 0.1942315109597178 0.8675256124760817 0.9239054024942026 0.0
O O 0.231020099176855 0.9362960977840793 1.205875661252816 0.0
O O 0.13809660167962137 0.9864455667932448 1.2627776833234763 0.0
Zn Zn 0.21292613646307734 0.9586666948477461 0.822659056632036 0.0
C C -0.24254499250944822 0.9080414876750228 -0.11848538151756449 0.0
H H -0.24142499250944824 0.9586114876750228 -0.1035553815175645 0.0
C C -0.24629304959521853 0.850750731562258 -0.03552685493674047 0.0
H H -0.24757304959521859 0.8694207315622581 0.03301314506325951 0.0
C C -0.2479063276594556 0.7848179764039501 -0.04444812016533756 0.0
C C -0.2472975513865741 0.7598522043721522 -0.16076439596237674 0.0
H H -0.24986755138657407 0.7094222043721522 -0.17752439596237676 0.0
C C -0.23354802788540807 0.8021436034189505 -0.2213621976256349 0.0
H H -0.23432802788540802 0.7850236034189505 -0.29113219762563486 0.0
C C -0.34703757688005776 0.9381708031762003 -0.49142261878648325 0.0
H H -0.3206175768800577 0.9055408031762004 -0.5255926187864832 0.0
C C -0.42182672512910574 0.9500323161057052 -0.5229681482036591 0.0
H H -0.4407067251291057 0.923102316105705 -0.5835281482036591 0.0
C C -0.4678521454280499 0.9942973120757866 -0.4700722997995147 0.0
C C -0.4244492221814303 1.032778321215267 -0.37557659651391656 0.0
H H -0.4502192221814302 1.0649483212152668 -0.3396365965139166 0.0
C C -0.36040658999508823 1.0251996774314458 -0.3579146166378522 0.0
H H -0.3401865899950882 1.051569677431446 -0.29747461663785213 0.0
C C -0.16631921541725395 0.8989894849387942 -0.4775233760261829 0.0
C C -0.12353398685215153 0.8557523928868557 -0.5444445694293646 0.0
C C -0.09110337062030624 0.796728093080436 -0.5121815107646307 0.0
H H -0.09148337062030622 0.7828080930804361 -0.4411515107646306 0.0
C C -0.046586458826614364 0.762537445620599 -0.5881590068501198 0.0
H H -0.02096645882661437 0.722217445620599 -0.5573190068501197 0.0
C C -0.04149931274101319 0.7850228588945782 -0.6845610297079922 0.0
C C -0.07591574643344122 0.8388810445961127 -0.7136028073413042 0.0
H H -0.07309574643344123 0.8539510445961126 -0.7833728073413043 0.0
C C -0.11655846319392321 0.8676543641573646 -0.6604437557366474 0.0
C C -0.17413275653540033 0.9459000888475287 -0.7211826805369332 0.0
C C 0.004461911940152714 0.7315691376659644 -0.7460308834580474 0.0
C C 0.05203159520691744 0.6840511811168638 -0.6975950630966646 0.0
F F 0.10423413826130713 0.7097270590367174 -0.6068329426810493 0.0
F F 0.022331866212817835 0.6336208421951276 -0.6375004407809758 0.0
F F 0.1017926659833873 0.6482504224326125 -0.7371155654179228 0.0
N N -0.2433781998006433 0.8872112282044359 -0.210569175425512 0.0
N N -0.3238208238458743 0.9776966704070349 -0.4000338525950064 0.0
O O -0.17259548344464132 0.9710731004547493 -0.4982425244741395 0.0
O O -0.19757940602991697 0.8789830929844814 -0.4279550952252072 0.0
O O -0.2307511287808541 0.938389044941641 -0.7106973663309656 0.0
O O -0.14922678506323855 0.9892284746958079 -0.7605491473117251 0.0
Zn Zn -0.22540635522962718 0.9474921755541985 -0.3362259349242465 0.0
C C 0.7329589956868635 1.402807113276528 0.6110610223599986 0.0
H H 0.7318389956868635 1.453377113276528 0.5961310223599986 0.0
C C 0.7420634331947977 1.3562197935820517 0.5340916027683075 0.0
H H 0.7433434331947977 1.3748897935820514 0.46555160276830754 0.0
C C 0.7528542431856826 1.272016427845066 0.5472333680208707 0.0
C C 0.7385474578300674 1.2592966855818812 0.6533076333547684 0.0
H H 0.7411174578300671 1.2088666855818815 0.6700676333547684 0.0
C C 0.7455553941964872 1.3052774539997511 0.7151471851776237 0.0
H H 0.7463353941964871 1.2881574539997511 0.7849171851776237 0.0
C C 0.8525215856769839 1.4470323197978703 0.98251312623492 0.0
H H 0.8261015856769838 1.4144023197978703 1.01668312623492 0.0
C C 0.9191881372332835 1.4523561603502255 1.0349527648995587 0.0
H H 0.9380681372332834 1.4254261603502258 1.0955127648995586 0.0
C C 0.9644382038228213 1.5006163906718288 0.9706905857253305 0.0
C C 0.9326618699186691 1.527060118621793 0.8818867839619505 0.0
H H 0.9584318699186691 1.559230118621793 0.8459467839619504 0.0
C C 0.8630948286521313 1.5147477819941328 0.8482881642948974 0.0
H H 0.842874828652131 1.5411177819941329 0.7878481642948973 0.0
C C 0.6569058723793224 1.405950881730225 0.9878880604491999 0.0
C C 0.6301353578319331 1.3486345367375134 1.061275663325813 0.0
C C 0.5876796938690695 1.2957544001416124 1.0193592417756256 0.0
H H 0.5880596938690694 1.2818344001416127 0.9483292417756255 0.0
C C 0.5456682581940664 1.2530773498873657 1.0648786233156704 0.0
H H 0.5200482581940665 1.2127573498873658 1.0340386233156706 0.0
C C 0.548485356517488 1.272396681596398 1.1850088699412367 0.0
C C 0.5752131681096667 1.3432273873627225 1.2118467364278545 0.0
H H 0.5723931681096668 1.3582973873627224 1.2816167364278548 0.0
C C 0.6208983868834564 1.372986700207189 1.1717776165868372 0.0
C C 0.6646916898363591 1.4392316324034258 1.2125940718810453 0.0
C C 0.49481962160234316 1.233452575153806 1.2487523064068216 0.0
C C 0.44062805838066954 1.1816530517913773 1.1732146562936754 0.0
F F 0.4135828438200898 1.216696153737606 1.116439069887827 0.0
F F 0.4736671216471058 1.1215532264291004 1.1274076972380689 0.0
F F 0.40602676111370284 1.1463433262070155 1.24404849839504 0.0
N N 0.7372490197602067 1.3802877792419526 0.6951865997539796 0.0
N N 0.8291544078239227 1.474899072376747 0.8895390674814424 0.0
O O 0.6677322155055111 1.4694575273729356 1.0078707456506473 0.0
O O 0.6917359010348996 1.3611536274381149 0.9147312796471416 0.0
O O 0.727878328926777 1.428631995891298 1.2158387664664614 0.0
O O 0.6420163082465107 1.4890146289014443 1.2577608995085265 0.0
Zn Zn 0.7218289196347023 1.449819487784594 0.8332870535521892 0.0
C C 0.26514985206381164 1.391724883619778 -0.09429807761770376 0.0
H H 0.2662698520638116 1.442294883619778 -0.07936807761770376 0.0
C C 0.25269833344646453 1.3496689444776013 -0.019732328051609523 0.0
H H 0.2514183334464646 1.3683389444776013 0.04880767194839046 0.0
C C 0.25891231269166365 1.2739192943882232 -0.03899988124578167 0.0
C C 0.255763168856495 1.2558387956253108 -0.14457645221830068 0.0
H H 0.25319316885649495 1.2054087956253108 -0.16133645221830067 0.0
C C 0.2543152667621984 1.309883752478855 -0.23574551661899945 0.0
H H 0.25353526676219845 1.2927637524788547 -0.3055155166189994 0.0
C C 0.14407307736357994 1.4315574134611093 -0.47326680579722186 0.0
H H 0.17049307736357996 1.3989274134611094 -0.507436805797222 0.0
C C 0.08178351696309509 1.443705586834896 -0.5335861403297387 0.0
H H 0.06290351696309507 1.4167755868348961 -0.5941461403297387 0.0
C C 0.04595387899594099 1.4901773802423712 -0.4713955457372255 0.0
C C 0.06275363973574404 1.531330687100823 -0.38064650748722534 0.0
H H 0.03698363973574402 1.5635006871008228 -0.34470650748722537 0.0
C C 0.14404433024125007 1.5165527387690838 -0.337269561520924 0.0
H H 0.1642643302412501 1.5429227387690836 -0.276829561520924 0.0
C C 0.33911537940769326 1.3972973068089058 -0.48506680205581104 0.0
C C 0.38315548411033656 1.3475611781967103 -0.5500499921118119 0.0
C C 0.4155414965968346 1.2924840312782135 -0.5140173073172764 0.0
H H 0.41516149659683454 1.2785640312782136 -0.44298730731727626 0.0
C C 0.44962879062146 1.2663607501173937 -0.5756078685704695 0.0
H H 0.4752487906214601 1.226040750117394 -0.5447678685704695 0.0
C C 0.4555666008749488 1.275213579066047 -0.678999873224734 0.0
C C 0.4239299612376655 1.3389892533553707 -0.7348437349017533 0.0
H H 0.42674996123766534 1.3540592533553706 -0.8046137349017535 0.0
C C 0.3787323141665695 1.3863822960039174 -0.6580983846724333 0.0
C C 0.33505048835270423 1.4324463933843206 -0.7109149369142589 0.0
C C 0.5073919815096112 1.2309899127383386 -0.7483972045495628 0.0
C C 0.5497446613646584 1.1843798402585657 -0.6870872323352842 0.0
F F 0.5912645646358908 1.215485660222928 -0.6131882076823362 0.0
F F 0.5250424199978956 1.1238833323165727 -0.6415814681191488 0.0
F F 0.5869904411467362 1.1557878821331742 -0.7601241571130303 0.0
N N 0.269083530223827 1.380533710451912 -0.21270550124616852 0.0
N N 0.1751964350161161 1.4785044634493767 -0.4028360046470453 0.0
O O 0.326740486980893 1.4652294940693742 -0.5019104848371432 0.0
O O 0.31280471663916526 1.3641253889745926 -0.41588575142572953 0.0
O O 0.265070934586511 1.4358895135598873 -0.7131435473338782 0.0
O O 0.3479009574473829 1.4883719892325025 -0.7679921721746307 0.0
Zn Zn 0.26987834260956656 1.458010571931116 -0.338069869630703 0.0
C C -0.2380709268295494 -0.9092290935392188 -0.6109815260537508 0.0
H H -0.23695092682954935 -0.9597990935392187 -0.5960515260537508 0.0
C C -0.2467251727787255 -0.8531147246168865 -0.531037813275702 0.0
H H -0.2480051727787255 -0.8717847246168867 -0.46249781327570194 0.0
C C -0.25233050647740396 -0.7790301511423746 -0.5539826108674687 0.0
C C -0.24233919645677027 -0.7518668867254646 -0.641316013371941 0.0
H H -0.24490919645677028 -0.7014368867254647 -0.658076013371941 0.0
C C -0.23801879613892504 -0.8112192707202915 -0.7176971315128793 0.0
H H -0.23879879613892502 -0.7940992707202915 -0.7874671315128793 0.0
C C -0.3473961886044074 -0.9378696468442951 -0.9851668202510883 0.0
H H -0.3209761886044074 -0.9052396468442953 -1.0193368202510882 0.0
C C -0.4249045239619002 -0.9490907461324465 -1.0135530183780834 0.0
H H -0.4437845239619001 -0.9221607461324465 -1.0741130183780834 0.0
C C -0.4563672470078639 -0.9900013247699075 -0.9793867901917545 0.0
C C -0.4316533264044013 -1.0364268928250024 -0.8939425010344573 0.0
H H -0.45742332640440114 -1.0685968928250023 -0.8580025010344572 0.0
C C -0.35910163580037446 -1.022741309743788 -0.8466337038204665 0.0
H H -0.33888163580037445 -1.049111309743788 -0.7861937038204664 0.0
C C -0.15549187596340946 -0.9132972358201695 -0.9819337507827834 0.0
C C -0.12079277433609292 -0.8536047987976076 -1.0432067119637891 0.0
C C -0.08609007823189231 -0.7896107912035522 -1.0086855871472444 0.0
H H -0.0864700782318923 -0.7756907912035521 -0.9376555871472443 0.0
C C -0.046736509966823624 -0.7562783291039411 -1.0846621722769274 0.0
H H -0.021116509966823623 -0.7159583291039411 -1.0538221722769276 0.0
C C -0.03177772025975678 -0.7791079140284319 -1.170086514008401 0.0
C C -0.07907187599727004 -0.8373962535339148 -1.2249071135825407 0.0
H H -0.07625187599727007 -0.8524662535339147 -1.294677113582541 0.0
C C -0.12351294271603874 -0.8746749743693111 -1.147660013149395 0.0
C C -0.15829196651999955 -0.9409852103636241 -1.2039087952658345 0.0
C C -0.008200717729803884 -0.7296423410204592 -1.25001940296297 0.0
C C 0.058272297797260085 -0.6767998212982015 -1.1951792520515072 0.0
F F 0.10153388120072117 -0.7135146392872114 -1.1060293601379014 0.0
F F 0.03795066747789658 -0.6278251110452026 -1.1294271644381524 0.0
F F 0.0996080502989255 -0.6598419607361932 -1.2491570435205843 0.0
N N -0.23460205295644004 -0.8797603613874068 -0.7055487998529687 0.0
N N -0.31938289574085854 -0.9786692718235982 -0.8880473377630405 0.0
O O -0.1719097014125625 -0.9736157188854476 -0.9861172574811072 0.0
O O -0.18171451023275415 -0.8672231242799947 -0.9120612521420823 0.0
O O -0.238789788089257 -0.9290701884194088 -1.219646702310088 0.0
O O -0.14037969194424565 -0.9837400822097124 -1.2466426763877667 0.0
Zn Zn -0.21800541171443338 -0.956161758871945 -0.8227653846610159 0.0
C C 0.2388615229182924 -0.8983076885447542 0.09701760555122751 0.0
H H 0.23774152291829243 -0.9488776885447541 0.08208760555122754 0.0
C C 0.23745851718687386 -0.8529183625638497 0.021531384845045333 0.0
H H 0.23873851718687386 -0.8715883625638499 -0.04700861515495465 0.0
C C 0.253847735841683 -0.7848276151966007 0.04074738034872548 0.0
C C 0.2467410923444062 -0.7638499331897692 0.15451242649768318 0.0
H H 0.24931109234440618 -0.7134199331897692 0.17127242649768318 0.0
C C 0.2323332546789224 -0.7963419285264465 0.2202338186149219 0.0
H H 0.23311325467892235 -0.7792219285264463 0.29000381861492186 0.0
C C 0.3455403191926718 -0.9326012454472382 0.4767705330531015 0.0
H H 0.31912031919267186 -0.8999712454472384 0.5109405330531016 0.0
C C 0.4251132315003592 -0.9452584021753436 0.5232302769247429 0.0
H H 0.4439932315003591 -0.9183284021753436 0.5837902769247428 0.0
C C 0.4654291316786879 -0.9937414561240341 0.4789021073231898 0.0
C C 0.4239361863193605 -1.0257097024569248 0.38799837956998007 0.0
H H 0.4497061863193604 -1.0578797024569246 0.35205837956998015 0.0
C C 0.3598835746559217 -1.0127139972218375 0.3399319481488868 0.0
H H 0.3396635746559217 -1.0390839972218378 0.2794919481488867 0.0
C C 0.16946545571687824 -0.8990261278246696 0.4806607247915901 0.0
C C 0.12090535454687948 -0.8538213521275279 0.5433241317911408 0.0
C C 0.07665420424807397 -0.7957796104104213 0.5118108565682827 0.0
H H 0.07703420424807395 -0.7818596104104214 0.4407808565682827 0.0
C C 0.0494344498869991 -0.7619009841014686 0.5644462369421216 0.0
H H 0.0238144498869991 -0.7215809841014684 0.5336062369421215 0.0
C C 0.03764988638057616 -0.7716239609539126 0.6656983225331152 0.0
C C 0.07108531894568233 -0.8359765995684002 0.7044562955502133 0.0
H H 0.06826531894568236 -0.8510465995684 0.7742262955502134 0.0
C C 0.11844459453670272 -0.8862028321487141 0.6645436574638469 0.0
C C 0.16666075582423479 -0.9286208012526588 0.7146295202917907 0.0
C C -0.006759693083173295 -0.7330551916301319 0.7464515465229957 0.0
C C -0.06141247518706042 -0.6728048817435885 0.6841112527418169 0.0
F F -0.09317704396631044 -0.712878545178374 0.6148773665825316 0.0
F F -0.020035887682309197 -0.6253635991512996 0.6462404987513807 0.0
F F -0.09634508496609623 -0.6517107298003124 0.7470395476875368 0.0
N N 0.23455242393984602 -0.8812671192525687 0.20209722362449925 0.0
N N 0.3173881426078239 -0.9701823008976356 0.386505672024543 0.0
O O 0.16815533458033083 -0.9726140210964035 0.49809255954416826 0.0
O O 0.19570453289208645 -0.8658768190553087 0.423853295545128 0.0
O O 0.23107675189309668 -0.9365889822445262 0.7129201726515143 0.0
O O 0.14387499202234957 -0.9815089498978321 0.7591024709472727 0.0
Zn Zn 0.21572736988271274 -0.9530610106346648 0.32749751121470444 0.0
C C 0.26283659799405107 -0.39951556338779876 -0.606328877702743 0.0
H H 0.263956597994051 -0.4500855633877986 -0.591398877702743 0.0
C C 0.2646005820406505 -0.35353897764747855 -0.5236820865647842 0.0
H H 0.26332058204065056 -0.37220897764747857 -0.4551420865647842 0.0
C C 0.25519920954593156 -0.2688100669762847 -0.5350550091912251 0.0
C C 0.25024651985958424 -0.24568471953128881 -0.6405608935517175 0.0
H H 0.2476765198595842 -0.1952547195312888 -0.6573208935517175 0.0
C C 0.2599808965975332 -0.30992649713168274 -0.7355013330534683 0.0
H H 0.2592008965975332 -0.2928064971316827 -0.8052713330534683 0.0
C C 0.14401348686824045 -0.44385554668862326 -0.9934612980026227 0.0
H H 0.17043348686824045 -0.41122554668862327 -1.0276312980026228 0.0
C C 0.07965471784469812 -0.45374051704716833 -1.021255492112352 0.0
H H 0.06077471784469812 -0.42681051704716827 -1.0818154921123517 0.0
C C 0.04394319876985551 -0.49578463812626145 -0.9692422408528846 0.0
C C 0.07058356580041923 -0.5345602360269439 -0.8941006592255858 0.0
H H 0.04481356580041923 -0.5667302360269436 -0.8581606592255857 0.0
C C 0.12685737698018054 -0.513010852711057 -0.8543169139771041 0.0
H H 0.14707737698018056 -0.539380852711057 -0.7938769139771039 0.0
C C 0.330925500861934 -0.4005770695087062 -0.990779570865567 0.0
C C 0.38080689578769655 -0.3562934978772395 -1.052961710505383 0.0
C C 0.42024897670949724 -0.303454411008789 -1.0143704041993462 0.0
H H 0.41986897670949724 -0.28953441100878907 -0.9433404041993463 0.0
C C 0.4545717325325047 -0.2561387535232237 -1.0693752860522692 0.0
H H 0.4801917325325046 -0.21581875352322363 -1.0385352860522692 0.0
C C 0.4519872728986911 -0.2704850827841951 -1.1808771666162226 0.0
C C 0.41897509442262765 -0.33866021051166656 -1.2179580898033286 0.0
H H 0.4217950944226275 -0.35373021051166653 -1.2877280898033288 0.0
C C 0.3707016651533865 -0.3778834478830141 -1.1695888438129927 0.0
C C 0.3300829527514873 -0.425247856787574 -1.2113202573531494 0.0
C C 0.49669114726573227 -0.23885506882339938 -1.2456977755519916 0.0
C C 0.5615150139453943 -0.19015724769767717 -1.1817938497774227 0.0
F F 0.5937995739108601 -0.21525958145592136 -1.1182747403276418 0.0
F F 0.5219718878993006 -0.11434896085633077 -1.1370842852319594 0.0
F F 0.5912603757071903 -0.14653182138894066 -1.2406883462776364 0.0
N N 0.2569102226680758 -0.373335657031415 -0.720665410675507 0.0
N N 0.17980783287028743 -0.47655905747228 -0.8918255163944787 0.0
O O 0.32511659643698926 -0.4676977455900602 -0.9992293640900314 0.0
O O 0.31865693199713574 -0.3710334589700467 -0.9119149635796852 0.0
O O 0.2769324181758487 -0.43173924473754854 -1.2120857664406117 0.0
O O 0.363118021422028 -0.48855599175567116 -1.2578274060236934 0.0
Zn Zn 0.28219908338644517 -0.4509287214812413 -0.817952799078138 0.0
C C 0.7456377699364812 -0.4036768456204891 0.10848935316420533 0.0
H H 0.7445177699364812 -0.4542468456204891 0.09355935316420533 0.0
C C 0.737724849490599 -0.34798787883535903 0.01498578645446672 0.0
H H 0.739004849490599 -0.3666578788353591 -0.05355421354553326 0.0
C C 0.7556022565912216 -0.280247564636918 0.049919727534092746 0.0
C C 0.7398291525215533 -0.2560109718916864 0.1432472524543558 0.0
H H 0.7423991525215533 -0.2055809718916864 0.1600072524543558 0.0
C C 0.748129402095322 -0.3035486380132297 0.22032406361530918 0.0
H H 0.748909402095322 -0.28642863801322965 0.29009406361530915 0.0
C C 0.8486507560541671 -0.4327881798731852 0.4904932201831238 0.0
H H 0.822230756054167 -0.4001581798731852 0.5246632201831238 0.0
C C 0.923992022644375 -0.45227242972800463 0.5365394201591923 0.0
H H 0.9428720226443749 -0.4253424297280046 0.5970994201591923 0.0
C C 0.9711508184788137 -0.4994148972780414 0.48438366628600726 0.0
C C 0.9350366780663292 -0.5361462095613072 0.39844733999627124 0.0
H H 0.9608066780663294 -0.568316209561307 0.3625073399962713 0.0
C C 0.8676674552092326 -0.5312280124891487 0.3525366898493206 0.0
H H 0.8474474552092326 -0.5575980124891488 0.2920966898493206 0.0
C C 0.6743150805518775 -0.4058731053815838 0.4938072452098776 0.0
C C 0.6190932976985484 -0.35576112376951363 0.5421601207031556 0.0
C C 0.5897372376137119 -0.2973558555124817 0.5159466054748376 0.0
H H 0.5901172376137119 -0.28343585551248185 0.4449166054748376 0.0
C C 0.5409265757848666 -0.25602434438172217 0.5756405145465383 0.0
H H 0.5153065757848666 -0.21570434438172215 0.5448005145465383 0.0
C C 0.5388912027268341 -0.2708354509584027 0.6794160801035912 0.0
C C 0.5826486018517939 -0.3440308757029184 0.7147607002869575 0.0
H H 0.579828601851794 -0.3591008757029183 0.7845307002869576 0.0
C C 0.6187102296222676 -0.37498796358671915 0.6747944662281029 0.0
C C 0.6692004260097328 -0.43922684968138215 0.7148302546525455 0.0
C C 0.5055543800824189 -0.23042068992992149 0.7420489005856427 0.0
C C 0.44212785786990766 -0.1693970334941035 0.6792568894537232 0.0
F F 0.40764310456502834 -0.2116675486236457 0.6174080531564534 0.0
F F 0.4814923787039728 -0.12422848844281843 0.6447483811797657 0.0
F F 0.39628678398844347 -0.1484059171508098 0.7418633510529407 0.0
N N 0.7316337778801196 -0.37786581034252326 0.20490978709188942 0.0
N N 0.827566843246519 -0.4725005422455618 0.39283213506112385 0.0
O O 0.6693544843003305 -0.46456087974096005 0.5076775598024349 0.0
O O 0.6880359503350397 -0.3617654467190899 0.4166110489777341 0.0
O O 0.7384286371772366 -0.436592771243526 0.7211343823544147 0.0
O O 0.6360672439579884 -0.4755900935582238 0.751992914571803 0.0
Zn Zn 0.7199266375772725 -0.44338828439954464 0.31898422163433915 0.0
