_cell_length_a 19.5206
_cell_length_b 17.9856
_cell_length_c 12.6054
_cell_angle_alpha 90.0
_cell_angle_beta 99.0355
_cell_angle_gamma 90.0
_symmetry_space_group_name_H-M         'P 1'
_symmetry_Int_Tables_number            1
loop_
_symmetry_equiv_pos_as_xyz
   'x, y, z'
                         
loop_
_atom_site_label
_atom_site_type_symbol
_atom_site_fract_x 
_atom_site_fract_y
_atom_site_fract_z
_atom_site_charge
C C 0.23353621394617383 0.8959627070317864 0.6025161530400335 0.0
H H 0.2324162139461738 0.9465327070317864 0.5875861530400335 0.0
C C 0.24258122574461985 0.8527886306155038 0.5395855913112557 0.0
H H 0.24386122574461988 0.8714586306155039 0.47104559131125573 0.0
C C 0.2403327148761437 0.77354686916257 0.537100538550493 0.0
C C 0.24520973409454816 0.7561496496373035 0.6388404340703734 0.0
H H 0.24777973409454818 0.7057196496373034 0.6556004340703735 0.0
C C 0.24754513873913878 0.8056136232179801 0.7270751427599631 0.0
H H 0.24832513873913875 0.78849362321798 0.7968451427599631 0.0
C C 0.3544859636161462 0.9342591277526121 0.9839628273280208 0.0
H H 0.3280659636161462 0.9016291277526123 1.0181328273280208 0.0
C C 0.4205995417751192 0.9411642364504281 1.0345566401408008 0.0
H H 0.4394795417751191 0.9142342364504281 1.0951166401408008 0.0
C C 0.4525981415830739 0.9928880956738187 0.9831465465054644 0.0
C C 0.4322511220201335 1.0332507087160312 0.8967217368219756 0.0
H H 0.4580211220201334 1.065420708716031 0.8607817368219756 0.0
C C 0.35773321090457816 1.017790270944123 0.8601982468037146 0.0
H H 0.33751321090457814 1.0441602709441233 0.7997582468037144 0.0
C C 0.15871009122995883 0.898765117340666 0.9861180342568368 0.0
C C 0.11861162654943033 0.8493744273848556 1.0588166731034838 0.0
C C 0.08952642979188467 0.800893206701487 1.0164913640121904 0.0
H H 0.08990642979188466 0.786973206701487 0.9454613640121903 0.0
C C 0.04359544232095165 0.7663961828748005 1.07959859602748 0.0
H H 0.017975442320951652 0.7260761828748005 1.0487585960274803 0.0
C C 0.04883458068539607 0.7850217399755061 1.1760252491380712 0.0
C C 0.08256006117919278 0.8451416898454989 1.217103277827928 0.0
H H 0.0797400611791928 0.8602116898454988 1.2868732778279284 0.0
C C 0.11303440501265069 0.8721242919425638 1.15748813979251 0.0
C C 0.17391343843667445 0.9430277323347226 1.2291598626386635 0.0
C C -0.005527952523808172 0.7205621198448279 1.25034605245202 0.0
C C -0.05471381102404333 0.6861374737800564 1.1804112350631715 0.0
F F -0.09242179571308357 0.7241560875471692 1.1133420692366205 0.0
F F -0.02838999918688711 0.6324121234561074 1.1469160097617574 0.0
F F -0.09971089863538167 0.6492620495403363 1.2344888143723554 0.0
N N 0.22695119165527522 0.8728507574744013 0.70176582112947 0.0
N N 0.31226432739061305 0.970594014405748 0.8930393076066715 0.0
O O 0.1759622252760935 0.9790122442101395 0.9967125773545009 0.0
O O 0.18328834239128872 0.864129595751917 0.9136699399939212 0.0
O O 0.2353771593274898 0.9331178720371683 1.2236670555902884 0.0
O O 0.14558351731028293 0.9944210291631205 1.2664953774636083 0.0
Zn Zn 0.22414040057780443 0.9518168355991087 0.8330148605575451 0.0
C C -0.24269286291873657 0.9040352944939032 -0.10129492887343071 0.0
H H -0.24157286291873656 0.9546052944939031 -0.08636492887343071 0.0
C C -0.23443938882686216 0.8559667740573284 -0.029279410454444686 0.0
H H -0.2357193888268622 0.8746367740573285 0.0392605895455553 0.0
C C -0.25123412811702095 0.7763724461235495 -0.039695078195051706 0.0
C C -0.24348145790289455 0.7617591906748994 -0.14360053837797176 0.0
H H -0.2460514579028945 0.7113291906748994 -0.16036053837797173 0.0
C C -0.24000478568545747 0.810475710138005 -0.2229211489862575 0.0
H H -0.24078478568545741 0.793355710138005 -0.2926911489862575 0.0
C C -0.34831311401454385 0.9379823370271032 -0.48855201045915025 0.0
H H -0.3218931140145439 0.9053523370271034 -0.5227220104591502 0.0
C C -0.4251842185685054 0.9498720106671237 -0.5157821282188542 0.0
H H -0.44406421856850536 0.9229420106671237 -0.5763421282188541 0.0
C C -0.46167669589758076 1.001286118696839 -0.4715460467864396 0.0
C C -0.42775408262565234 1.0373184398732511 -0.3861731818580452 0.0
H H -0.4535240826256523 1.0694884398732507 -0.3502331818580453 0.0
C C -0.3656588933019345 1.0116556020904262 -0.3636070657290581 0.0
H H -0.34543889330193445 1.0380256020904262 -0.303167065729058 0.0
C C -0.16112880419024075 0.8979641212665853 -0.48690840957510634 0.0
C C -0.12519631128376865 0.8648129754423237 -0.5520790425577292 0.0
C C -0.07958563582726355 0.7965734517697467 -0.5150416146344811 0.0
H H -0.07996563582726353 0.7826534517697468 -0.444011614634481 0.0
C C -0.04510630599902932 0.7683620579814148 -0.568921368231244 0.0
H H -0.01948630599902932 0.7280420579814146 -0.5380813682312439 0.0
C C -0.0353422755833771 0.7774262544495957 -0.6761587677355871 0.0
C C -0.07969854759432897 0.8386611689933618 -0.7282804981726753 0.0
H H -0.07687854759432898 0.8537311689933618 -0.7980504981726755 0.0
C C -0.12001494900307363 0.8839882125950592 -0.6640455215760082 0.0
C C -0.15870434191693625 0.9374192390098268 -0.7072021176923468 0.0
C C -0.003748001412384406 0.7282479420423955 -0.7412419188700143 0.0
C C 0.048165978141291005 0.6755721309181935 -0.6815955706167465 0.0
F F 0.0948862352114293 0.7281623665088534 -0.6102209253230673 0.0
F F 0.025395090123551074 0.6294261350408688 -0.642854805035517 0.0
F F 0.09924862084231867 0.644133042736606 -0.7468925119594924 0.0
N N -0.23308883395029617 0.8681333312320023 -0.21569994223078512 0.0
N N -0.31796734432422613 0.972150142609193 -0.3980365404686845 0.0
O O -0.167551806716422 0.9655043043188493 -0.49215504655620423 0.0
O O -0.1944370337905715 0.8735616278606683 -0.4260151675823276 0.0
O O -0.2274778291774435 0.926175948858289 -0.7194176515593749 0.0
O O -0.13857101469192826 0.9896290100790726 -0.7582168452896401 0.0
Zn Zn -0.22471365212256245 0.9396499719817929 -0.33870856821834117 0.0
C C 0.7417564992945576 1.395017637189127 0.6070572683790313 0.0
H H 0.7406364992945577 1.4455876371891268 0.5921272683790313 0.0
C C 0.7419334134306751 1.3453397531209472 0.5386350079230474 0.0
H H 0.7432134134306749 1.3640097531209472 0.47009500792304737 0.0
C C 0.7455883969317816 1.271875112832133 0.5341094161192246 0.0
C C 0.7405044437302408 1.2463199976646462 0.6424481416315636 0.0
H H 0.7430744437302407 1.1958899976646462 0.6592081416315636 0.0
C C 0.739271881392562 1.2956889178483824 0.7161276569755172 0.0
H H 0.7400518813925618 1.2785689178483823 0.7858976569755172 0.0
C C 0.8520774165567929 1.4403765161632636 0.9715916287122766 0.0
H H 0.8256574165567928 1.4077465161632634 1.0057616287122766 0.0
C C 0.9285860677341831 1.4419403267990407 1.023425304770673 0.0
H H 0.9474660677341831 1.4150103267990408 1.083985304770673 0.0
C C 0.9578500579186277 1.4926520874897369 0.974277722831043 0.0
C C 0.9293225305550666 1.535530616555868 0.9022204351193285 0.0
H H 0.9550925305550667 1.567700616555868 0.8662804351193284 0.0
C C 0.8599076704724333 1.5219402674664106 0.8480230883043967 0.0
H H 0.8396876704724333 1.5483102674664104 0.7875830883043965 0.0
C C 0.6642581711406329 1.4125293867667554 0.9945065288105654 0.0
C C 0.6175198333205714 1.3497687472654152 1.0496321460350517 0.0
C C 0.5745657524831085 1.2960423806903738 1.0133736714253516 0.0
H H 0.5749457524831084 1.282122380690374 0.9423436714253517 0.0
C C 0.5354788997915111 1.2546922848573554 1.0797953545506476 0.0
H H 0.5098588997915111 1.2143722848573555 1.0489553545506476 0.0
C C 0.5449140394353751 1.28380563414076 1.1786553141920386 0.0
C C 0.570853839781432 1.3315573673714178 1.2222015962881183 0.0
H H 0.5680338397814321 1.3466273673714177 1.2919715962881184 0.0
C C 0.6237293195717306 1.3774722445063068 1.170935613485239 0.0
C C 0.669544587281181 1.439540181579672 1.2149413291927302 0.0
C C 0.4931638505790218 1.2329681983634764 1.25450573740625 0.0
C C 0.44945646785037346 1.1841062066518948 1.1952473317330492 0.0
F F 0.4059080297160517 1.2109799434151087 1.1154054366479373 0.0
F F 0.47447546432556204 1.1287290881766214 1.1419681792068335 0.0
F F 0.409219921206855 1.1456278152453183 1.2452926957215893 0.0
N N 0.732866962225334 1.366468572561395 0.705852880744319 0.0
N N 0.8174684802799244 1.4740199543818762 0.8893649268055094 0.0
O O 0.6666199919415474 1.474724653737096 0.9969398296854987 0.0
O O 0.6910219135430131 1.3649666847480535 0.906660907254022 0.0
O O 0.7283662728633399 1.4413844913643188 1.2092120799213149 0.0
O O 0.6337554316763896 1.4867411626676377 1.2577462339532928 0.0
Zn Zn 0.7235798001458472 1.4474711973690053 0.8216755822236509 0.0
C C 0.26381605655180884 1.396709701806291 -0.104395505624976 0.0
H H 0.2649360565518089 1.4472797018062908 -0.089465505624976 0.0
C C 0.2575696491042093 1.3450910284774666 -0.03550008791279634 0.0
H H 0.25628964910420937 1.3637610284774666 0.03303991208720365 0.0
C C 0.2583361965650833 1.2807898746628146 -0.030512630168148737 0.0
C C 0.2558467191242644 1.251719134718655 -0.146949695555441 0.0
H H 0.2532767191242643 1.201289134718655 -0.16370969555544096 0.0
C C 0.2588415982161739 1.3042306692211794 -0.22079528653973038 0.0
H H 0.2580615982161739 1.2871106692211793 -0.29056528653973035 0.0
C C 0.1552680092695288 1.4464949266911575 -0.484586857792885 0.0
H H 0.1816880092695288 1.4138649266911576 -0.518756857792885 0.0
C C 0.07689955807202412 1.4417355621169425 -0.5170727614369345 0.0
H H 0.058019558072024094 1.4148055621169426 -0.5776327614369344 0.0
C C 0.045379414267707856 1.4988461244439613 -0.48521305463852954 0.0
C C 0.06771602913085581 1.5384736592606814 -0.3927544962611197 0.0
H H 0.041946029130855815 1.5706436592606814 -0.3568144962611197 0.0
C C 0.14212817365345753 1.5161269227209688 -0.34487141585249254 0.0
H H 0.16234817365345758 1.5424969227209686 -0.2844314158524925 0.0
C C 0.3301263213875002 1.395680084682842 -0.4843535980069364 0.0
C C 0.3685355077504124 1.3583002175310528 -0.5511907365212725 0.0
C C 0.42134185402125496 1.2951047908931885 -0.510545541223384 0.0
H H 0.4209618540212549 1.2811847908931888 -0.43951554122338393 0.0
C C 0.4565693719013866 1.2603613077994449 -0.5714548133556666 0.0
H H 0.4821893719013867 1.220041307799445 -0.5406148133556665 0.0
C C 0.4605166263610744 1.2752250002599121 -0.6798601696375696 0.0
C C 0.4300634141515268 1.3459627493894872 -0.7081341293560933 0.0
H H 0.43288341415152676 1.3610327493894872 -0.7779041293560935 0.0
C C 0.38376600743319905 1.3719709233248638 -0.6531580548941571 0.0
C C 0.3346938618554107 1.4418523673406767 -0.7027285606780084 0.0
C C 0.49374966735518083 1.219673201099586 -0.7517573561831822 0.0
C C 0.5596465694485633 1.1876817318046518 -0.6855148230843392 0.0
F F 0.5893903379669014 1.2154821871448442 -0.5975243402824596 0.0
F F 0.5269501792036688 1.1170001194370303 -0.6464854912939326 0.0
F F 0.5957323399279475 1.1410117297346682 -0.7606136135352409 0.0
N N 0.27214467119239155 1.3810660910819037 -0.20723130702438483 0.0
N N 0.17483469795441503 1.4771427125263188 -0.39858601064489524 0.0
O O 0.32876256443539664 1.4759884805395425 -0.4989166161665167 0.0
O O 0.3161738275669335 1.377339343896436 -0.42809290749049494 0.0
O O 0.2730671124872565 1.4272479957790174 -0.7145111498956517 0.0
O O 0.3519265962110605 1.4851966978952091 -0.77108850801175 0.0
Zn Zn 0.27847424297384776 1.4485035268833457 -0.32500288061582017 0.0
C C -0.2412172694698281 -0.9024703695053444 -0.6161935729410554 0.0
H H -0.24009726946982807 -0.9530403695053444 -0.6012635729410554 0.0
C C -0.2468440681012508 -0.8538132911897254 -0.5237874796499503 0.0
H H -0.2481240681012508 -0.8724832911897255 -0.45524747964995027 0.0
C C -0.24686636892912092 -0.7783473087212687 -0.5413997756014636 0.0
C C -0.24248096527482585 -0.7629749752070939 -0.6534053938923082 0.0
H H -0.24505096527482587 -0.7125449752070939 -0.6701653938923082 0.0
C C -0.23936987656598377 -0.8120816997949484 -0.7240809159777711 0.0
H H -0.24014987656598377 -0.7949616997949484 -0.7938509159777711 0.0
C C -0.3516780671784428 -0.9259308092400466 -0.9824305620875504 0.0
H H -0.3252580671784428 -0.8933008092400466 -1.0166005620875505 0.0
C C -0.4309453043968447 -0.9533635534103202 -1.0330922063244181 0.0
H H -0.44982530439684465 -0.9264335534103201 -1.0936522063244178 0.0
C C -0.4610009282881514 -0.9905763941719746 -0.9859945904743826 0.0
C C -0.42799699289467247 -1.0297027783623387 -0.8985073137761271 0.0
H H -0.45376699289467237 -1.0618727783623385 -0.862567313776127 0.0
C C -0.36909515861741055 -1.02069845021005 -0.8540801956461834 0.0
H H -0.3488751586174105 -1.04706845021005 -0.7936401956461834 0.0
C C -0.15949805889808558 -0.8965299493238176 -0.9895261486385658 0.0
C C -0.1237964690098515 -0.859172534938842 -1.0526835499885674 0.0
C C -0.0931105982720361 -0.7976212861068963 -1.011695637631158 0.0
H H -0.0934905982720361 -0.7837012861068963 -0.9406656376311581 0.0
C C -0.04427404240472192 -0.7580435458739194 -1.0590220574935167 0.0
H H -0.018654042404721915 -0.7177235458739194 -1.028182057493517 0.0
C C -0.03529554405104876 -0.775091316263512 -1.1791687882592663 0.0
C C -0.07202710883308394 -0.8431949631650405 -1.2294352604635908 0.0
H H -0.069207108833084 -0.8582649631650404 -1.299205260463591 0.0
C C -0.11741090403261506 -0.8826772161155697 -1.1734992946434413 0.0
C C -0.1647100058130212 -0.9312964458036452 -1.2186210185399733 0.0
C C 0.001017074508337569 -0.737122011982926 -1.2507907222902637 0.0
C C 0.04607003944590207 -0.6859244040114474 -1.1850992553316873 0.0
F F 0.08599621722841726 -0.7172665364409511 -1.1079145907420804 0.0
F F 0.030506551143300028 -0.626454235329058 -1.1508581167016103 0.0
F F 0.09669999181929427 -0.6601658032352141 -1.2582342570768565 0.0
N N -0.23295085711313893 -0.8721473338445332 -0.705106281194054 0.0
N N -0.3232087139505625 -0.9697680713737377 -0.8862707092671498 0.0
O O -0.17170973506176246 -0.9800961157174747 -1.005350243690334 0.0
O O -0.18866726713657272 -0.8633109272027203 -0.9149752573111403 0.0
O O -0.236362318951683 -0.9431366167935171 -1.2164836829393242 0.0
O O -0.14461952145793835 -0.9802198028182774 -1.2713517474855065 0.0
Zn Zn -0.22466395051482857 -0.9577078076127438 -0.8349200726270559 0.0
C C 0.24740448836424067 -0.8944973986056788 0.10412456892350551 0.0
H H 0.24628448836424066 -0.9450673986056787 0.08919456892350551 0.0
C C 0.23684255797840484 -0.8482030076741096 0.02829131825408665 0.0
H H 0.23812255797840487 -0.8668730076741097 -0.04024868174591333 0.0
C C 0.251375919883741 -0.7743534888645562 0.04654884330763393 0.0
C C 0.24039478361025574 -0.7633181443620022 0.14307890884432842 0.0
H H 0.2429647836102557 -0.7128881443620022 0.15983890884432841 0.0
C C 0.24122960966673643 -0.8039295857646179 0.2371765757621046 0.0
H H 0.24200960966673635 -0.7868095857646179 0.30694657576210455 0.0
C C 0.34727508638029225 -0.9373359998061536 0.4804176903599417 0.0
H H 0.3208550863802922 -0.9047059998061537 0.5145876903599418 0.0
C C 0.4147730827484026 -0.9511703995043225 0.5324340150775968 0.0
H H 0.43365308274840253 -0.9242403995043225 0.5929940150775967 0.0
C C 0.4656485749687891 -0.9944259738512674 0.4840219416981622 0.0
C C 0.42842096909231464 -1.0257332621434399 0.3853165653725546 0.0
H H 0.4541909690923146 -1.0579032621434397 0.3493765653725547 0.0
C C 0.3619007451306383 -1.0223843932982226 0.35833159299724243 0.0
H H 0.3416807451306383 -1.0487543932982226 0.2978915929972423 0.0
C C 0.16100904205153319 -0.8964184103851132 0.48564902584177067 0.0
C C 0.12149386932228798 -0.8656202454837135 0.5560064443098033 0.0
C C 0.08161304242014372 -0.8017050318824753 0.5154102791406653 0.0
H H 0.0819930424201437 -0.7877850318824754 0.44438027914066514 0.0
C C 0.03685672767881355 -0.762069462082578 0.5656099048186638 0.0
H H 0.011236727678813563 -0.721749462082578 0.5347699048186638 0.0
C C 0.03974739594149365 -0.7756980942526086 0.674119631999322 0.0
C C 0.07413039999390715 -0.8432786420795924 0.7175727020334148 0.0
H H 0.07131039999390716 -0.8583486420795923 0.7873427020334149 0.0
C C 0.11347916745358747 -0.8780947660701107 0.6682053572182836 0.0
C C 0.17331352194504748 -0.9293119339199944 0.7098891988708655 0.0
C C 0.006170715921800398 -0.7239313327535672 0.7531972094403628 0.0
C C -0.06027209261854763 -0.6850871573230335 0.6748779033837355 0.0
F F -0.09910259938485916 -0.7279333869541345 0.6056995469389339 0.0
F F -0.0328504846703809 -0.6362717469280321 0.632934181117176 0.0
F F -0.09360864383353631 -0.642792767141067 0.7495672509741681 0.0
N N 0.23490364428467347 -0.8880205918862127 0.21051707532852307 0.0
N N 0.3197087505865265 -0.965469793200693 0.39089962737614875 0.0
O O 0.17601230790147937 -0.9689500234903584 0.508740790321675 0.0
O O 0.19085732715927278 -0.8711975675072214 0.43540595366930274 0.0
O O 0.22898063210396144 -0.9382735775592956 0.7120454479745952 0.0
O O 0.142292682963066 -0.9833360535626718 0.7676010990774051 0.0
Zn Zn 0.2232185908126536 -0.9570600664123609 0.33255405340886135 0.0
C C 0.25823098713588005 -0.400427313848928 -0.5980137246125087 0.0
H H 0.25935098713588006 -0.4509973138489279 -0.5830837246125087 0.0
C C 0.25731778852014764 -0.34706802072149273 -0.5296113244791554 0.0
H H 0.25603778852014775 -0.36573802072149275 -0.4610713244791554 0.0
C C 0.25877487175594177 -0.2685942377006714 -0.5312009984771402 0.0
C C 0.2553869379539178 -0.24773951653793053 -0.6365590488633394 0.0
H H 0.2528169379539178 -0.19730951653793052 -0.6533190488633394 0.0
C C 0.26556493391753605 -0.30813361372363235 -0.726440139402575 0.0
H H 0.26478493391753605 -0.2910136137236324 -0.796210139402575 0.0
C C 0.14368235700847679 -0.4320034871246837 -0.9913879800862531 0.0
H H 0.1701023570084768 -0.3993734871246838 -1.025557980086253 0.0
C C 0.08657573414351596 -0.4452025215444693 -1.021250788705037 0.0
H H 0.06769573414351597 -0.41827252154446926 -1.081810788705037 0.0
C C 0.036542612201104496 -0.4939545584375556 -0.9684225921842956 0.0
C C 0.0775292213525921 -0.5296564730793445 -0.8871271744050215 0.0
H H 0.051759221352592095 -0.5618264730793442 -0.8511871744050215 0.0
C C 0.13274901450466367 -0.5211631795722982 -0.8538180591758892 0.0
H H 0.15296901450466371 -0.5475331795722982 -0.793378059175889 0.0
C C 0.32737649470123115 -0.4032197002040154 -0.990547299836473 0.0
C C 0.3788863053538909 -0.3549255314531322 -1.0459946762272478 0.0
C C 0.4069898085856218 -0.29907358596611516 -1.0172358649847206 0.0
H H 0.40660980858562185 -0.28515358596611523 -0.9462058649847205 0.0
C C 0.4609346368164071 -0.24984509626752643 -1.0740876356358953 0.0
H H 0.486554636816407 -0.20952509626752644 -1.0432476356358955 0.0
C C 0.4622279599365069 -0.27543778809666486 -1.1633294472534992 0.0
C C 0.4190211912779297 -0.34345335307063685 -1.2228995270624041 0.0
H H 0.4218411912779297 -0.3585233530706368 -1.2926695270624042 0.0
C C 0.38003637849830674 -0.36896285723082395 -1.1567274389898177 0.0
C C 0.3272237502497169 -0.4303113672312256 -1.2156666570438333 0.0
C C 0.5057647094245168 -0.23184651828143318 -1.2506896067937223 0.0
C C 0.5517836358653669 -0.17512258919047965 -1.1805984368903184 0.0
F F 0.600844440423222 -0.219260057697586 -1.1126117426186126 0.0
F F 0.5329398493344611 -0.12610804510914367 -1.127933626638311 0.0
F F 0.5901301921501138 -0.15716327993838888 -1.2538240586076572 0.0
N N 0.25916120788686087 -0.3770182125961412 -0.7063163757250808 0.0
N N 0.186847265409168 -0.47172812468411046 -0.8982328492135252 0.0
O O 0.33052642673591065 -0.471187266239496 -1.0152087116809945 0.0
O O 0.308495132412452 -0.36783959834538843 -0.9187531156645841 0.0
O O 0.27878484896519884 -0.4288750702604709 -1.2107159709398037 0.0
O O 0.3518481293139253 -0.477801717004212 -1.2608636925442702 0.0
Zn Zn 0.2726920714459077 -0.4519570136918284 -0.818383369711904 0.0
C C 0.736112350358043 -0.39221479009001947 0.11165394448889891 0.0
H H 0.734992350358043 -0.4427847900900194 0.09672394448889891 0.0
C C 0.750618245407066 -0.34648872300585937 0.02502058424699887 0.0
H H 0.7518982454070661 -0.36515872300585944 -0.04351941575300111 0.0
C C 0.7457909169508098 -0.2763238685801559 0.042060887848170636 0.0
C C 0.7422422628079698 -0.2612364589869941 0.14692970795837723 0.0
H H 0.7448122628079696 -0.21080645898699413 0.16368970795837726 0.0
C C 0.7429155184176846 -0.29802322034795004 0.23839437738863697 0.0
H H 0.7436955184176844 -0.28090322034795007 0.30816437738863695 0.0
C C 0.85540495960139 -0.4435123272583104 0.4716146928240011 0.0
H H 0.8289849596013898 -0.4108823272583104 0.5057846928240012 0.0
C C 0.9249518918785488 -0.4402488328552387 0.5376168485008804 0.0
H H 0.9438318918785488 -0.41331883285523874 0.5981768485008804 0.0
C C 0.9636614524221815 -0.4952267990485468 0.49200460550412844 0.0
C C 0.9380952530758992 -0.5335363017457341 0.38462550055966177 0.0
H H 0.9638652530758994 -0.5657063017457338 0.34868550055966185 0.0
C C 0.8641818969940169 -0.5137218909762794 0.3621298897226499 0.0
H H 0.8439618969940169 -0.5400918909762794 0.3016898897226498 0.0
C C 0.6697396464090216 -0.4096617197176025 0.4790233060541812 0.0
C C 0.6176755815316167 -0.36042259939395427 0.5581530448710178 0.0
C C 0.5919995240387247 -0.29687957324100717 0.5091441167168258 0.0
H H 0.5923795240387246 -0.2829595732410073 0.4381141167168257 0.0
C C 0.5474934266155941 -0.2603283308452461 0.5595962915859288 0.0
H H 0.5218734266155941 -0.22000833084524607 0.5287562915859289 0.0
C C 0.5478145545553068 -0.28020239852118217 0.6792319847898243 0.0
C C 0.5731932041800001 -0.3415274609441604 0.7071413391555623 0.0
H H 0.5703732041800003 -0.35659746094416034 0.7769113391555624 0.0
C C 0.6173942174807624 -0.3789833321459136 0.6648134414293546 0.0
C C 0.6672069208093534 -0.43247628400326743 0.7279031671308187 0.0
C C 0.5026521200945516 -0.23150104808876254 0.7614870693437938 0.0
C C 0.44909974507852435 -0.16902166312876918 0.6858458771279962 0.0
F F 0.4021040238991989 -0.22806558307118968 0.596860698855284 0.0
F F 0.46603579533327044 -0.12208440729728837 0.6335777962748665 0.0
F F 0.40911746394707943 -0.13976671802172327 0.7517236656129255 0.0
N N 0.7324366414786417 -0.37677890138610587 0.19827448453368335 0.0
N N 0.8249607638459292 -0.47198299415932277 0.4014705253489879 0.0
O O 0.67019610376791 -0.46633860992919646 0.4961459237531369 0.0
O O 0.6842484574711396 -0.37777790969750186 0.42729831608197383 0.0
O O 0.7240536949622219 -0.4338084460118297 0.7168967845338122 0.0
O O 0.6475454349688639 -0.4886104335562965 0.7610272335982922 0.0
Zn Zn 0.7242694266795988 -0.44293285498489193 0.3236653632164914 0.0
_cell_length_a 19.5206
_cell_length_b 17.9856
_cell_length_c 12.6054
_cell_angle_alpha 90.0
_cell_angle_beta 99.0355
_cell_angle_gamma 90.0
_symmetry_space_group_name_H-M         'P 1'
_symmetry_Int_Tables_number            1
loop_
_symmetry_equiv_pos_as_xyz
   'x, y, z'
                         
loop_
_atom_site_label
_atom_site_type_symbol
_atom_site_fract_x 
_atom_site_fract_y
_atom_site_fract_z
_atom_site_charge
C C 0.24652376409179816 0.8954762350774885 0.6070838814838551 0.0
H H 0.24540376409179812 0.9460462350774885 0.5921538814838551 0.0
C C 0.25170121503075 0.8567855106680039 0.5390185855638703 0.0
H H 0.25298121503075 0.875455510668004 0.47047858556387023 0.0
C C 0.25168282442845075 0.7690559204323395 0.5460844937607628 0.0
C C 0.24451043678454432 0.7473099598905051 0.6569218791833811 0.0
H H 0.24708043678454433 0.6968799598905051 0.6736818791833811 0.0
C C 0.24989082391816572 0.804415666454725 0.7289907693152545 0.0
H H 0.2506708239181657 0.7872956664547248 0.7987607693152545 0.0
C C 0.3473332963274857 0.9290359053539843 0.9834824592727243 0.0
H H 0.32091329632748566 0.8964059053539845 1.0176524592727243 0.0
C C 0.4186020902461158 0.9477486675705494 1.024280171588674 0.0
H H 0.4374820902461157 0.9208186675705494 1.084840171588674 0.0
C C 0.47131637106595214 0.9987199577709575 0.9735308341141989 0.0
C C 0.43781485176013 1.0331365085911441 0.8807589724222553 0.0
H H 0.46358485176013 1.065306508591144 0.8448189724222552 0.0
C C 0.364305851644352 1.019490233175347 0.8402994726661349 0.0
H H 0.3440858516443519 1.045860233175347 0.7798594726661348 0.0
C C 0.16818597749478983 0.9147677280965545 0.9855549199697831 0.0
C C 0.11642656711212447 0.8471321739941263 1.0536738634449845 0.0
C C 0.08367269068776517 0.7989858344897719 1.0079723340939915 0.0
H H 0.08405269068776515 0.7850658344897719 0.9369423340939914 0.0
C C 0.0369905017613265 0.7548010928603606 1.062044398416156 0.0
H H 0.01137050176132649 0.7144810928603605 1.031204398416156 0.0
C C 0.04021877560724216 0.7787019122445877 1.190160191848883 0.0
C C 0.07890323842927567 0.8373577856567732 1.2275664806624453 0.0
H H 0.0760832384292757 0.8524277856567731 1.2973364806624457 0.0
C C 0.12380768837776647 0.8829041363962435 1.1534392209887978 0.0
C C 0.15669465214704117 0.9326320475640099 1.2133828819146177 0.0
C C 0.0067348689856941936 0.7283559388748183 1.2523370580791635 0.0
C C -0.061622391521166255 0.6704659443436811 1.180182429822208 0.0
F F -0.08660359099969563 0.7211518263205998 1.1117701113408833 0.0
F F -0.027909466642382936 0.6281815987260649 1.1225297266207668 0.0
F F -0.09496135116519815 0.6536520704379872 1.246541482528689 0.0
N N 0.23324015122325073 0.882393070228575 0.7059137612504878 0.0
N N 0.3214909993313967 0.9621493353184645 0.8988514010954031 0.0
O O 0.16611007196462144 0.9773760262248817 0.9987485205197437 0.0
O O 0.19306520386823728 0.8769948845070838 0.9225553418509458 0.0
O O 0.2314263603141388 0.9305442877453803 1.2082015032156288 0.0
O O 0.14564172779970808 0.9930702555972575 1.2604197896255807 0.0
Zn Zn 0.2246423425117648 0.9458833312728397 0.8192583101376231 0.0
C C -0.24427642999359267 0.8967854676052625 -0.11177032482529106 0.0
H H -0.24315642999359266 0.9473554676052623 -0.09684032482529106 0.0
C C -0.249311767126749 0.8475020347337168 -0.03562993305890473 0.0
H H -0.250591767126749 0.866172034733717 0.03291006694109525 0.0
C C -0.243034222282937 0.7735461139862517 -0.05440834049391054 0.0
C C -0.23721940389084137 0.7635082914778799 -0.13780838824354116 0.0
H H -0.23978940389084133 0.7130782914778799 -0.15456838824354116 0.0
C C -0.2364031495925159 0.8019729595808838 -0.22938678724940242 0.0
H H -0.23718314959251585 0.7848529595808837 -0.29915678724940237 0.0
C C -0.3523037941241814 0.9328802296700379 -0.4847345358484544 0.0
H H -0.3258837941241814 0.9002502296700381 -0.5189045358484544 0.0
C C -0.41260203580161225 0.9459312036379338 -0.5165501836029924 0.0
H H -0.4314820358016122 0.9190012036379338 -0.5771101836029924 0.0
C C -0.4592684073486027 0.9954455440441714 -0.4886544076094701 0.0
C C -0.4356547716507565 1.029739864718097 -0.3864598356633436 0.0
H H -0.4614247716507564 1.061909864718097 -0.35051983566334366 0.0
C C -0.35491470678246945 1.0179598971237753 -0.34488139422610975 0.0
H H -0.33469470678246943 1.0443298971237753 -0.28444139422610965 0.0
C C -0.1689441354128087 0.9064560066624764 -0.49676161815682274 0.0
C C -0.11855933724326577 0.8618376168717562 -0.5607013591972763 0.0
C C -0.09064633140534405 0.8028496867068354 -0.515803721452148 0.0
H H -0.09102633140534402 0.7889296867068354 -0.4447737214521479 0.0
C C -0.04221779028445688 0.7491962898231268 -0.5799137873520105 0.0
H H -0.016597790284456893 0.7088762898231267 -0.5490737873520104 0.0
C C -0.03916142852675931 0.7684858803704746 -0.6734878096752351 0.0
C C -0.07855898208243935 0.8354843779860557 -0.7114644127712751 0.0
H H -0.07573898208243937 0.8505543779860556 -0.7812344127712753 0.0
C C -0.11695947475175936 0.8781544043600099 -0.6539496751935978 0.0
C C -0.1776035209737158 0.9278328504374896 -0.7220722162629379 0.0
C C 0.005593231068128901 0.7314390020016356 -0.7451185351925907 0.0
C C 0.05215082096026404 0.6798099850410848 -0.6998965223720024 0.0
F F 0.10243789417818465 0.7278875820942086 -0.604197852930953 0.0
F F 0.03345401465385803 0.631195900629572 -0.6330980696556359 0.0
F F 0.10011417042695987 0.6575041544468616 -0.7480623066740308 0.0
N N -0.2357739903412235 0.8861445500862382 -0.1963863854452002 0.0
N N -0.31833410955620717 0.9677939884614593 -0.39145622740857344 0.0
O O -0.1731248994175413 0.9652431180445658 -0.4902330742317448 0.0
O O -0.18343598768089112 0.8727839604691199 -0.42956063425939767 0.0
O O -0.2321305307938129 0.9345077982442733 -0.714718820413063 0.0
O O -0.14766705991431286 0.9808958267537669 -0.7691080032354682 0.0
Zn Zn -0.22122780379621537 0.9444832233900451 -0.3398134185443852 0.0
C C 0.7350702082410663 1.3984903547631995 0.6004154508936965 0.0
H H 0.7339502082410663 1.4490603547631995 0.5854854508936965 0.0
C C 0.7349524855926206 1.3417017275280323 0.5206570440353447 0.0
H H 0.7362324855926204 1.3603717275280323 0.45211704403534475 0.0
C C 0.7406618173223041 1.268482610372559 0.5390068898731006 0.0
C C 0.7463846961867819 1.2550667156986108 0.6522766691405585 0.0
H H 0.7489546961867818 1.2046367156986109 0.6690366691405585 0.0
C C 0.7382008827667773 1.3058125358990031 0.7201814605754732 0.0
H H 0.7389808827667772 1.2886925358990031 0.7899514605754732 0.0
C C 0.8599054271449098 1.4434456306516539 0.9946893968271755 0.0
H H 0.8334854271449097 1.410815630651654 1.0288593968271755 0.0
C C 0.9282498826976104 1.447432408239022 1.0220361910514002 0.0
H H 0.9471298826976103 1.4205024082390223 1.0825961910514 0.0
C C 0.9686395552451335 1.4975876133067956 0.9789672876454212 0.0
C C 0.9359914514637154 1.5261405194985793 0.889072652943133 0.0
H H 0.9617614514637155 1.5583105194985791 0.8531326529431329 0.0
C C 0.8708423449330609 1.5247024347543765 0.8542555198054085 0.0
H H 0.8506223449330608 1.5510724347543765 0.7938155198054084 0.0
C C 0.6658566249907065 1.414131062028113 0.9930568663862867 0.0
C C 0.6238945269281918 1.3548829900188313 1.0453723358710325 0.0
C C 0.5805912313628769 1.2966642189655138 1.0101626929823164 0.0
H H 0.5809712313628769 1.282744218965514 0.9391326929823164 0.0
C C 0.5497936860975403 1.2601556635274447 1.068872021851897 0.0
H H 0.5241736860975403 1.2198356635274448 1.038032021851897 0.0
C C 0.5396211701174505 1.2880405797086878 1.1837146060205037 0.0
C C 0.5770529040634313 1.3395514148347218 1.2314894330668928 0.0
H H 0.5742329040634314 1.3546214148347218 1.301259433066893 0.0
C C 0.6215043055655685 1.3658846040640213 1.1589770189070734 0.0
C C 0.6641041598193866 1.4418726282415057 1.223047419814 0.0
C C 0.5011534185532541 1.239174361415592 1.2605504874379185 0.0
C C 0.44404231126336274 1.1843697756430047 1.1909444366095199 0.0
F F 0.41093789502095024 1.2267757717306211 1.1205332607152154 0.0
F F 0.4691730351602527 1.1295099611193702 1.1459524985658245 0.0
F F 0.40517735555610385 1.146765812021725 1.2514350327272925 0.0
N N 0.7295169275880092 1.3794900203204892 0.6971771059065985 0.0
N N 0.8176623398496196 1.474967374181584 0.8914987003282122 0.0
O O 0.674266019082191 1.475291006288066 0.9976198972061568 0.0
O O 0.6847450792910638 1.359972860433359 0.9129984984045761 0.0
O O 0.7310021598432477 1.4335720228179567 1.2140587539450776 0.0
O O 0.6378823110574031 1.4836290321833163 1.2648433092329385 0.0
Zn Zn 0.714037034023872 1.4418253662036333 0.8269588660166594 0.0
C C 0.26229220275484116 1.3978424781102916 -0.11840190346337517 0.0
H H 0.26341220275484123 1.4484124781102916 -0.10347190346337518 0.0
C C 0.25250799555730635 1.3454712218511 -0.03882420355587037 0.0
H H 0.2512279955573064 1.3641412218511 0.029715796444129614 0.0
C C 0.24463855814052882 1.2778077306450537 -0.04387784532633871 0.0
C C 0.25376581311008517 1.2614588123002384 -0.14789620763711336 0.0
H H 0.2511958131100851 1.2110288123002384 -0.16465620763711336 0.0
C C 0.25522783568178997 1.3024301260553648 -0.241415875750448 0.0
H H 0.25444783568178997 1.2853101260553648 -0.311185875750448 0.0
C C 0.13855561829295493 1.4383533779800317 -0.478368443785914 0.0
H H 0.16497561829295493 1.4057233779800316 -0.512538443785914 0.0
C C 0.08166972024075708 1.442377214017066 -0.5225188132643529 0.0
H H 0.06278972024075705 1.4154472140170664 -0.5830788132643528 0.0
C C 0.042874564752887874 1.4972187666527181 -0.4801128588872687 0.0
C C 0.06947344301345693 1.5262288917549063 -0.3924023841658723 0.0
H H 0.043703443013456904 1.5583988917549063 -0.3564623841658724 0.0
C C 0.13370729910264628 1.5098602804007275 -0.36374093430856874 0.0
H H 0.15392729910264627 1.5362302804007275 -0.3033009343085687 0.0
C C 0.33305060549974186 1.402162590423352 -0.48659454382368145 0.0
C C 0.37280449334514515 1.3572301290367343 -0.559983816765999 0.0
C C 0.419799946387088 1.302772886217057 -0.5134152131253851 0.0
H H 0.419419946387088 1.2888528862170572 -0.4423852131253849 0.0
C C 0.4535216725310149 1.2545354684961232 -0.5831544823075545 0.0
H H 0.479141672531015 1.2142154684961233 -0.5523144823075545 0.0
C C 0.4657390569852004 1.2760869439265725 -0.6720191938701414 0.0
C C 0.4157187983760614 1.3276934128109035 -0.7301831720912645 0.0
H H 0.4185387983760613 1.3427634128109034 -0.7999531720912646 0.0
C C 0.37806253247892446 1.3686624599582988 -0.6580026237861535 0.0
C C 0.33139171292490843 1.4438165270526329 -0.720527076889121 0.0
C C 0.5029457092757476 1.2390742684840765 -0.7435438842834454 0.0
C C 0.5482745108644401 1.180134508845814 -0.6875862225431495 0.0
F F 0.5876072235308996 1.2188825655032256 -0.6038414467705904 0.0
F F 0.5187759530253195 1.114848446891461 -0.6376592099862359 0.0
F F 0.594754672978019 1.1544029942945269 -0.754153114327687 0.0
N N 0.2552131663694784 1.3740385109075979 -0.20900504411357373 0.0
N N 0.16881412231616522 1.4733140047331632 -0.40173497959433657 0.0
O O 0.3336991482497927 1.4764430447790893 -0.4888244657637339 0.0
O O 0.31599063493388163 1.3654490099522927 -0.4182750905926067 0.0
O O 0.27500144838604584 1.4363094838058452 -0.7242259967242386 0.0
O O 0.36272158050406944 1.4813733169959633 -0.7555495837384503 0.0
Zn Zn 0.28168715282778506 1.4546428061369983 -0.3320834777838785 0.0
C C -0.24091411739402474 -0.9053992705699213 -0.6196525231296612 0.0
H H -0.2397941173940247 -0.9559692705699213 -0.6047225231296612 0.0
C C -0.2472093751245046 -0.846220639334973 -0.5266884970919454 0.0
H H -0.24848937512450464 -0.8648906393349731 -0.4581484970919454 0.0
C C -0.2460600454430531 -0.7813302810763104 -0.5562247521282029 0.0
C C -0.2366113873825257 -0.7541322541491018 -0.6423758988606847 0.0
H H -0.23918138738252573 -0.7037022541491018 -0.6591358988606847 0.0
C C -0.24390850582704451 -0.7981199611203812 -0.7256017500022711 0.0
H H -0.24468850582704452 -0.7809999611203812 -0.7953717500022711 0.0
C C -0.3618528578937543 -0.9441085464853974 -0.9886331828796187 0.0
H H -0.33543285789375427 -0.9114785464853975 -1.0228031828796187 0.0
C C -0.41413238975221084 -0.9369810524050906 -1.0249703566722776 0.0
H H -0.4330123897522108 -0.9100510524050905 -1.0855303566722774 0.0
C C -0.45854514212801095 -0.9910919687546462 -0.973584998058457 0.0
C C -0.4363680632547182 -1.0392850897264752 -0.8995506338619782 0.0
H H -0.4621380632547181 -1.0714550897264747 -0.8636106338619781 0.0
C C -0.370914777857309 -1.021296124778305 -0.847068271085715 0.0
H H -0.35069477785730896 -1.047666124778305 -0.786628271085715 0.0
C C -0.16389571191840324 -0.9076113038086605 -0.9874978689714085 0.0
C C -0.11999776896871062 -0.8504381388197748 -1.0641034143377428 0.0
C C -0.0805746366978969 -0.7946755618455595 -1.013800372855729 0.0
H H -0.08095463669789689 -0.7807555618455595 -0.9427703728557291 0.0
C C -0.03816980788449559 -0.7532840278375764 -1.0804949990872126 0.0
H H -0.012549807884495586 -0.7129640278375764 -1.0496549990872128 0.0
C C -0.0369870569866545 -0.7733331189806907 -1.1723273261080502 0.0
C C -0.07790081780515913 -0.8276299907560134 -1.220172570608641 0.0
H H -0.07508081780515917 -0.8426999907560133 -1.2899425706086416 0.0
C C -0.11486404917539596 -0.8665105179898906 -1.1599046511863391 0.0
C C -0.17372497232913978 -0.9420154430820908 -1.2130245032726272 0.0
C C 0.008973798220888132 -0.7303053473718544 -1.2494492785570757 0.0
C C 0.06313531397747044 -0.6774942279219182 -1.19278927896098 0.0
F F 0.1003976114532758 -0.7206178549114379 -1.1149072648791825 0.0
F F 0.029389429471546442 -0.6330524614878161 -1.1406912195437944 0.0
F F 0.1013026464977269 -0.6471761937509977 -1.254578577864864 0.0
N N -0.23223159435916096 -0.8719103513996953 -0.7035045395078158 0.0
N N -0.32763754714343635 -0.972641382819144 -0.8871796306636529 0.0
O O -0.16703562544211628 -0.9727395708582812 -0.9939406308129333 0.0
O O -0.1832021633894476 -0.8645850666737614 -0.9269051801779906 0.0
O O -0.23087125256010937 -0.9334002357296206 -1.2140150993968315 0.0
O O -0.1413584293363791 -0.9871516850102456 -1.257562305584346 0.0
Zn Zn -0.22365292537179848 -0.9425669776932133 -0.8284974679753954 0.0
C C 0.23954604855276806 -0.9035977242468065 0.11210993519176429 0.0
H H 0.23842604855276808 -0.9541677242468064 0.0971799351917643 0.0
C C 0.23561889017422444 -0.8580629454278519 0.02799488906359404 0.0
H H 0.23689889017422444 -0.876732945427852 -0.04054511093640595 0.0
C C 0.2494888878000141 -0.7758055636328388 0.042078192728208376 0.0
C C 0.24793270406808107 -0.7593573926185315 0.14121007256963775 0.0
H H 0.250502704068081 -0.7089273926185314 0.15797007256963772 0.0
C C 0.2410463855708085 -0.8156146023711068 0.2210076388122691 0.0
H H 0.2418263855708085 -0.7984946023711068 0.29077763881226903 0.0
C C 0.3550770656830201 -0.9340924592762282 0.4775012199589121 0.0
H H 0.32865706568302017 -0.9014624592762283 0.5116712199589122 0.0
C C 0.4259965884201819 -0.9483744668473498 0.5169821786659142 0.0
H H 0.4448765884201818 -0.9214444668473498 0.5775421786659142 0.0
C C 0.4609921449215231 -0.9952144436783352 0.47107457922715545 0.0
C C 0.42721443269421244 -1.0382389966027605 0.3818709713435143 0.0
H H 0.4529844326942124 -1.0704089966027603 0.3459309713435143 0.0
C C 0.365331953577918 -1.0148181504193916 0.3667215751636648 0.0
H H 0.34511195357791796 -1.0411881504193916 0.3062815751636648 0.0
C C 0.16951024653593955 -0.9072963499951398 0.4905215884927063 0.0
C C 0.1226824802554068 -0.8689166110428487 0.556603094314887 0.0
C C 0.07810277321722056 -0.7943434352927561 0.5191245568505101 0.0
H H 0.07848277321722054 -0.780423435292756 0.44809455685051 0.0
C C 0.04765547791573755 -0.7597136154646063 0.5778655179988396 0.0
H H 0.022035477915737553 -0.7193936154646062 0.5470255179988396 0.0
C C 0.03694578967622483 -0.7835262745145222 0.6834440439519017 0.0
C C 0.07450301984422605 -0.8353422293682305 0.7251788679726261 0.0
H H 0.07168301984422608 -0.8504122293682304 0.7949488679726262 0.0
C C 0.1237552574771555 -0.8819156442998694 0.6596118207848619 0.0
C C 0.16578500230916557 -0.9430833762112333 0.7233401473142914 0.0
C C -0.00013846345041989522 -0.7368046568935851 0.7576136003601429 0.0
C C -0.04811107314446337 -0.6725679384048568 0.6934338747768012 0.0
F F -0.10139629198086816 -0.7230969049765003 0.5954062957448092 0.0
F F -0.02519067961515573 -0.6282775241600546 0.6392899181650694 0.0
F F -0.09282443612350537 -0.6553411369043212 0.735146871702018 0.0
N N 0.24172870624420634 -0.8824691743909175 0.20733068355891823 0.0
N N 0.31882664983983944 -0.9656135014821922 0.39405616718740016 0.0
O O 0.16962735687046607 -0.9694356572807926 0.5062678266886524 0.0
O O 0.19119219881021016 -0.8794986091257522 0.4173689755012844 0.0
O O 0.23072656749325396 -0.9391878011334119 0.7062258538508063 0.0
O O 0.14597909978446602 -0.9785247034541892 0.7723021795235019 0.0
Zn Zn 0.21914419093268506 -0.954902936489412 0.3279989528233442 0.0
C C 0.2549701927231838 -0.4058064176031412 -0.6220552439913731 0.0
H H 0.25609019272318373 -0.456376417603141 -0.6071252439913731 0.0
C C 0.25500967717383644 -0.34777332539047084 -0.5183409733501404 0.0
H H 0.2537296771738365 -0.36644332539047086 -0.4498009733501404 0.0
C C 0.2550726324556681 -0.27213460342625345 -0.5357712009349092 0.0
C C 0.2548631286264568 -0.24525523633648913 -0.6520846476814541 0.0
H H 0.2522931286264568 -0.19482523633648913 -0.6688446476814541 0.0
C C 0.2569681193743854 -0.30834862138741104 -0.737578425956385 0.0
H H 0.25618811937438535 -0.291228621387411 -0.807348425956385 0.0
C C 0.14139174447089875 -0.4464516359474958 -0.9887712434230178 0.0
H H 0.16781174447089878 -0.4138216359474958 -1.0229412434230178 0.0
C C 0.07292140579909616 -0.45112623912297684 -1.0223406560559782 0.0
H H 0.05404140579909619 -0.4241962391229767 -1.0829006560559782 0.0
C C 0.04271498117766864 -0.4927095996883947 -0.974543088755202 0.0
C C 0.06776708529696808 -0.5322867945236903 -0.8898468684402421 0.0
H H 0.04199708529696805 -0.5644567945236901 -0.853906868440242 0.0
C C 0.14159857816031263 -0.5172851508687399 -0.8417571471653408 0.0
H H 0.16181857816031267 -0.5436551508687398 -0.7813171471653406 0.0
C C 0.32817565432308987 -0.4067526942931682 -0.9954395465713479 0.0
C C 0.38202178588112246 -0.36236335306298395 -1.0611934190089036 0.0
C C 0.42192639445522834 -0.29147076479941536 -1.0083702066176232 0.0
H H 0.42154639445522835 -0.27755076479941543 -0.9373402066176232 0.0
C C 0.45070597746148966 -0.2687459175849663 -1.0719956369732853 0.0
H H 0.47632597746148964 -0.22842591758496628 -1.0411556369732855 0.0
C C 0.464186015353299 -0.2686769019233691 -1.1794037622135543 0.0
C C 0.42633683884527224 -0.33629320832908705 -1.2283248203059558 0.0
H H 0.4291568388452721 -0.35136320832908696 -1.2980948203059561 0.0
C C 0.3734868732554824 -0.38468957728407494 -1.1609770237647306 0.0
C C 0.33077051595161017 -0.43352156382142354 -1.21541900943146 0.0
C C 0.5003302511736137 -0.23500405859660078 -1.2408479662214493 0.0
C C 0.5552711656504791 -0.1700744883755273 -1.1842922188053069 0.0
F F 0.5927274007598757 -0.21551007793221544 -1.1207528796234356 0.0
F F 0.5346964774686324 -0.12307669430690416 -1.128460919489012 0.0
F F 0.6014938116233214 -0.15316820567804618 -1.252110401916519 0.0
N N 0.25713439743947597 -0.3793474168545121 -0.7057080639943214 0.0
N N 0.18108612149752493 -0.474075972940861 -0.9004870060865067 0.0
O O 0.3218908291603268 -0.47289354080797563 -0.9924011200282029 0.0
O O 0.3176076864978323 -0.3592281214571479 -0.9201012455469619 0.0
O O 0.2745537082306435 -0.43994214461829084 -1.2267408090352208 0.0
O O 0.36493017988367893 -0.48601645687250244 -1.2704129422747061 0.0
Zn Zn 0.2784025381243039 -0.4455565743883801 -0.8263321786926987 0.0
C C 0.7415837465600128 -0.39105191572990255 0.11309452336762105 0.0
H H 0.7404637465600128 -0.4416219157299025 0.09816452336762106 0.0
C C 0.7415864476768665 -0.34813296712074565 0.01467250428462237 0.0
H H 0.7428664476768665 -0.3668029671207457 -0.05386749571537761 0.0
C C 0.7497503897107902 -0.275389003947815 0.05071230916086764 0.0
C C 0.741026825057442 -0.24680117682827285 0.15282178789608067 0.0
H H 0.743596825057442 -0.19637117682827288 0.16958178789608064 0.0
C C 0.7423370691231232 -0.29786954566337803 0.23529852527679662 0.0
H H 0.7431170691231233 -0.280749545663378 0.30506852527679656 0.0
C C 0.8521800736309896 -0.4296884859406692 0.4769212228643964 0.0
H H 0.8257600736309895 -0.3970584859406692 0.5110912228643965 0.0
C C 0.9214621140885378 -0.44677978331582446 0.535811943210084 0.0
H H 0.9403421140885379 -0.4198497833158245 0.5963719432100839 0.0
C C 0.970088674077965 -0.48471588164422147 0.4786697868744614 0.0
C C 0.9316557838233942 -0.5214290541631985 0.3879451960321872 0.0
H H 0.9574257838233944 -0.5535990541631982 0.3520051960321872 0.0
C C 0.8679059995455024 -0.5193588034387405 0.3445322732707035 0.0
H H 0.8476859995455024 -0.5457288034387404 0.2840922732707034 0.0
C C 0.6624980419290228 -0.40550284574550866 0.49595730642881525 0.0
C C 0.6237834634195151 -0.36610016612378227 0.5538588526926216 0.0
C C 0.5837398904672112 -0.29752817426366224 0.5033242608587309 0.0
H H 0.5841198904672111 -0.28360817426366236 0.4322942608587309 0.0
C C 0.5378645756427396 -0.26789567795101804 0.5797707301509204 0.0
H H 0.5122445756427396 -0.22757567795101802 0.5489307301509204 0.0
C C 0.5328706275376168 -0.2805632458199946 0.6753432123454836 0.0
C C 0.5758877535116194 -0.3418755424143637 0.7169963094918629 0.0
H H 0.5730677535116195 -0.3569455424143636 0.786766309491863 0.0
C C 0.6136115518999061 -0.379958043162082 0.6516036560807092 0.0
C C 0.6687386923975936 -0.4463248388927239 0.7110842751216893 0.0
C C 0.5080379447251552 -0.23433835538617284 0.7489889667555204 0.0
C C 0.4459095450037144 -0.17563762964982102 0.6985360126148403 0.0
F F 0.40676284008915514 -0.2195828344942087 0.6223989900554701 0.0
F F 0.46787558857325934 -0.12000605643904162 0.6290186090801738 0.0
F F 0.4028299443189109 -0.15565892959635003 0.7555206282054596 0.0
N N 0.7381405350023511 -0.3798529545866627 0.22093920901006622 0.0
N N 0.8209996593959201 -0.48107388480271146 0.3943883484674732 0.0
O O 0.673103441523171 -0.46975685404095624 0.5149280051922396 0.0
O O 0.6924164493699869 -0.37451418759707045 0.40912467043659756 0.0
O O 0.7228884750654154 -0.4401270831480605 0.7069292742876139 0.0
O O 0.6350039832489419 -0.49420403216722547 0.7574992251809717 0.0
Zn Zn 0.7237380018217103 -0.4582896081781162 0.32213623939967145 0.0
