_cell_length_a 19.5206
_cell_length_b 17.9856
_cell_length_c 12.6054
_cell_angle_alpha 90.0
_cell_angle_beta 99.0355
_cell_angle_gamma 90.0
_symmetry_space_group_name_H-M         'P 1'
_symmetry_Int_Tables_number            1
loop_
_symmetry_equiv_pos_as_xyz
   'x, y, z'
                         
loop_
_atom_site_label
_atom_site_type_symbol
_atom_site_fract_x 
_atom_site_fract_y
_atom_site_fract_z
_atom_site_charge
C C 0.24310461116176738 0.8956980321611145 0.603985453639861 0.0
H H 0.24198461116176737 0.9462680321611144 0.589055453639861 0.0
C C 0.24149971021261604 0.8430949750321733 0.535013604779324 0.0
H H 0.24277971021261605 0.8617649750321734 0.46647360477932404 0.0
C C 0.24368036183074793 0.7774800293362953 0.5506009692458596 0.0
C C 0.23801740833739482 0.7496480668200254 0.6425384812418764 0.0
H H 0.24058740833739484 0.6992180668200253 0.6592984812418764 0.0
C C 0.23837618604713348 0.7981145657505136 0.7242193685650166 0.0
H H 0.23915618604713346 0.7809945657505135 0.7939893685650166 0.0
C C 0.3579111697897664 0.9398630402013773 0.9964998020526838 0.0
H H 0.3314911697897664 0.9072330402013775 1.0306698020526839 0.0
C C 0.4235584388173872 0.9391674835364856 1.0308935504654668 0.0
H H 0.44243843881738715 0.9122374835364856 1.0914535504654668 0.0
C C 0.4572024176556142 0.9874462008510475 0.9865488387452188 0.0
C C 0.43128369092462976 1.0262214034517116 0.8886342006124642 0.0
H H 0.45705369092462966 1.0583914034517115 0.8526942006124641 0.0
C C 0.3616845951423755 1.0165169905038165 0.8592498313121099 0.0
H H 0.3414645951423755 1.0428869905038165 0.7988098313121097 0.0
C C 0.1677711496559713 0.9075900078929756 0.9940967203774111 0.0
C C 0.11839627604697955 0.8556908940138009 1.0606926273904227 0.0
C C 0.08275261912568826 0.788348999601559 1.0204226436582768 0.0
H H 0.08313261912568826 0.774428999601559 0.9493926436582768 0.0
C C 0.03593134990253223 0.7661700042425459 1.0600294065069342 0.0
H H 0.010311349902532225 0.7258500042425459 1.0291894065069342 0.0
C C 0.044059868398947544 0.7788366494092847 1.1707132710713113 0.0
C C 0.07968533716406526 0.8302758087764899 1.229785509464447 0.0
H H 0.07686533716406531 0.8453458087764898 1.2995555094644475 0.0
C C 0.12499602204974197 0.8792266679896403 1.1682302631444765 0.0
C C 0.16768481844548797 0.9285458793020722 1.229295286329872 0.0
C C -0.002260147503119747 0.7284253507393116 1.2491927336662183 0.0
C C -0.05205754879561524 0.6725373230380742 1.1912816375382538 0.0
F F -0.09182927955678988 0.7238680623701276 1.1059298247750473 0.0
F F -0.02084954942452761 0.6217603981809611 1.1349672895813936 0.0
F F -0.10337243406070053 0.6473409679024285 1.2501020570487191 0.0
N N 0.23370347628793212 0.8745203854803358 0.69578144789637 0.0
N N 0.3149684108879937 0.9755815362660087 0.8876439109953388 0.0
O O 0.16451889489822027 0.9721034789687056 0.9893869515847213 0.0
O O 0.19874438387835563 0.866231982199256 0.9330973854277135 0.0
O O 0.23296709500148297 0.9300090492481771 1.2220489682687594 0.0
O O 0.13966259027068476 0.9803367537286982 1.266063687037508 0.0
Zn Zn 0.22501108314861712 0.9557915029034404 0.8303814511182769 0.0
C C -0.24226927926259983 0.8918513053840812 -0.11152442329782679 0.0
H H -0.24114927926259985 0.942421305384081 -0.0965944232978268 0.0
C C -0.25021056861953533 0.848235169074552 -0.020020290071798594 0.0
H H -0.25149056861953534 0.8669051690745521 0.048519709928201385 0.0
C C -0.23826049416034611 0.7740488430811528 -0.034315605942952396 0.0
C C -0.24659663421276923 0.748294482623188 -0.14086430242144765 0.0
H H -0.2491666342127692 0.697864482623188 -0.15762430242144765 0.0
C C -0.24389741403929416 0.8032606360325405 -0.22771462394057762 0.0
H H -0.24467741403929413 0.7861406360325405 -0.29748462394057756 0.0
C C -0.34842021872335854 0.9290292985947473 -0.47207083401846817 0.0
H H -0.3220002187233585 0.8963992985947474 -0.5062408340184682 0.0
C C -0.4199521286053943 0.9398157050330767 -0.5313836423017679 0.0
H H -0.4388321286053943 0.9128857050330766 -0.5919436423017679 0.0
C C -0.4667490192503616 0.9894222261949611 -0.47566987975040703 0.0
C C -0.437603058666794 1.0310262869770208 -0.3922483920461954 0.0
H H -0.46337305866679396 1.0631962869770206 -0.3563083920461954 0.0
C C -0.3595808381382136 1.0158547841112933 -0.3476161562993827 0.0
H H -0.3393608381382136 1.0422247841112935 -0.2871761562993826 0.0
C C -0.1586379449114294 0.9046226527132472 -0.47567289784423294 0.0
C C -0.12089804528598774 0.8596600620457837 -0.5455118276946859 0.0
C C -0.07997932828586868 0.7928613573233106 -0.5128912915594459 0.0
H H -0.08035932828586866 0.7789413573233107 -0.44186129155944576 0.0
C C -0.03985621029131295 0.7586953546934541 -0.5792084213051015 0.0
H H -0.014236210291312952 0.718375354693454 -0.5483684213051015 0.0
C C -0.036070596672906144 0.7752798195410104 -0.6632944570977617 0.0
C C -0.0836821918665085 0.8470485451755644 -0.7307818480055124 0.0
H H -0.08086219186650852 0.8621185451755643 -0.8005518480055126 0.0
C C -0.12272424257017821 0.8678513705349298 -0.6528336576453514 0.0
C C -0.16779905189009434 0.9442416435180161 -0.7205288869702638 0.0
C C -0.00030040038728073866 0.7302198506891153 -0.7477398158781045 0.0
C C 0.05356948332022175 0.6786320374202792 -0.6831822160381381 0.0
F F 0.0936852999638477 0.7106371327675622 -0.6073801465843206 0.0
F F 0.032813277415764994 0.629774081664111 -0.6427225589425518 0.0
F F 0.09645298438696072 0.6487028841528579 -0.7375763697567153 0.0
N N -0.2290179055965161 0.8814541722480522 -0.20684481417272144 0.0
N N -0.3283048723728617 0.9729003110515951 -0.4021007770038603 0.0
O O -0.16457314840718423 0.97176284651145 -0.49705841232594555 0.0
O O -0.19415226714602513 0.8672823253612351 -0.42063482743736935 0.0
O O -0.22296301140121408 0.9390113565216969 -0.7164568579975655 0.0
O O -0.14671554346030838 0.9905608955591407 -0.767259755625721 0.0
Zn Zn -0.22761737391346265 0.947238679925329 -0.3406351152732273 0.0
C C 0.7428782762055501 1.391103939760609 0.6214219678955697 0.0
H H 0.7417582762055501 1.441673939760609 0.6064919678955697 0.0
C C 0.743593111495657 1.3509195452187444 0.5217974948940872 0.0
H H 0.744873111495657 1.3695895452187443 0.45325749489408723 0.0
C C 0.7507019869331936 1.2834190875825384 0.5490415079734636 0.0
C C 0.7517404189996888 1.2491777678261728 0.6454500311229255 0.0
H H 0.7543104189996888 1.1987477678261729 0.6622100311229255 0.0
C C 0.7422805920646803 1.2982494884563824 0.7383267164583412 0.0
H H 0.7430605920646802 1.2811294884563822 0.8080967164583412 0.0
C C 0.8456806761714843 1.441004678178602 0.9726566934464117 0.0
H H 0.8192606761714842 1.408374678178602 1.0068266934464116 0.0
C C 0.9176469492153272 1.4534216598742828 1.0174282088314177 0.0
H H 0.9365269492153272 1.4264916598742832 1.0779882088314177 0.0
C C 0.9555164280924148 1.5013209351078274 0.9752313315659753 0.0
C C 0.9337452393932579 1.5389872837298324 0.8833436379812653 0.0
H H 0.9595152393932581 1.5711572837298322 0.8474036379812652 0.0
C C 0.8620596926756314 1.522648439430794 0.8579136296054631 0.0
H H 0.8418396926756314 1.549018439430794 0.7974736296054631 0.0
C C 0.6582941011540673 1.405873767869264 0.983084720080598 0.0
C C 0.629857815525561 1.356974820746558 1.0522368064651184 0.0
C C 0.5806499147386412 1.3058719017141533 1.014852439445138 0.0
H H 0.5810299147386412 1.2919519017141536 0.943822439445138 0.0
C C 0.5352921745604251 1.2567111387451517 1.0768536669078212 0.0
H H 0.5096721745604252 1.2163911387451516 1.0460136669078215 0.0
C C 0.5432504846869245 1.2732212344220848 1.1855230624106117 0.0
C C 0.5802204557761272 1.3442131924748677 1.2290503789429867 0.0
H H 0.5774004557761273 1.3592831924748676 1.2988203789429869 0.0
C C 0.6139602753246114 1.3757247779651953 1.1482644430677489 0.0
C C 0.6643924035593542 1.4296851374187387 1.2211544209439673 0.0
C C 0.4949593118887801 1.2237618381131836 1.2551663462479907 0.0
C C 0.44993001776468644 1.179270829761814 1.1873680714715245 0.0
F F 0.3996842168040695 1.211480045229224 1.1120044058043665 0.0
F F 0.4747142838880211 1.1181414832897802 1.1502869872990746 0.0
F F 0.4045917510303865 1.1452606727539973 1.2393138086892925 0.0
N N 0.7332000755908152 1.3680540552496452 0.707724330022444 0.0
N N 0.8163827676193454 1.480751560033824 0.8909511422540168 0.0
O O 0.6730961863483089 1.4711365459860986 1.0093268152979138 0.0
O O 0.6907133676998427 1.3700550612177915 0.928195589732623 0.0
O O 0.7359591683373043 1.431174229471911 1.223063514808279 0.0
O O 0.635921246314811 1.4862391503740333 1.2592911436550163 0.0
Zn Zn 0.7324293894817887 1.44814866143303 0.8346196770166496 0.0
C C 0.2628250713211212 1.3982833412297684 -0.10549267476005914 0.0
H H 0.26394507132112127 1.4488533412297684 -0.09056267476005914 0.0
C C 0.2505131233491299 1.3491228132602022 -0.033974798109174933 0.0
H H 0.24923312334912995 1.3677928132602022 0.03456520189082505 0.0
C C 0.25458881600871575 1.280552963210506 -0.04327873285376402 0.0
C C 0.2524370800423085 1.25490727805082 -0.1402768113817613 0.0
H H 0.24986708004230843 1.2044772780508202 -0.15703681138176126 0.0
C C 0.2660185165215718 1.3054632538066595 -0.22479602646274396 0.0
H H 0.2652385165215718 1.2883432538066595 -0.29456602646274394 0.0
C C 0.1449832997685472 1.4383933125480715 -0.4776278677856031 0.0
H H 0.17140329976854723 1.4057633125480713 -0.5117978677856032 0.0
C C 0.08386928479822367 1.4448297006850248 -0.5298164057157888 0.0
H H 0.06498928479822366 1.417899700685025 -0.5903764057157888 0.0
C C 0.04055520815891117 1.4864512706441713 -0.46921899836264397 0.0
C C 0.07607954242928255 1.5321549330833173 -0.38366007992798645 0.0
H H 0.05030954242928253 1.5643249330833173 -0.3477200799279865 0.0
C C 0.1350064807057493 1.5214923018429305 -0.3632273172832898 0.0
H H 0.1552264807057493 1.5478623018429303 -0.3027873172832897 0.0
C C 0.3440172015053027 1.4043430814753854 -0.4847678900864658 0.0
C C 0.38312970889880754 1.3590092249199912 -0.5537152191863445 0.0
C C 0.42358911138626876 1.2939586002603685 -0.5018587767592255 0.0
H H 0.42320911138626877 1.2800386002603685 -0.43082877675922543 0.0
C C 0.4508086409453719 1.2555163973498162 -0.5834890922787839 0.0
H H 0.47642864094537196 1.2151963973498163 -0.5526490922787839 0.0
C C 0.46390243292504085 1.2755764966959644 -0.6777350228532871 0.0
C C 0.4292619206997551 1.334887581685311 -0.719928426413064 0.0
H H 0.432081920699755 1.3499575816853109 -0.7896984264130641 0.0
C C 0.3786645720838349 1.375299198186923 -0.6523887730735257 0.0
C C 0.32959888616937577 1.4397973017159564 -0.7087128365725797 0.0
C C 0.4936087595444277 1.2303297679093137 -0.7540305599334878 0.0
C C 0.5629148727441285 1.1820273742561413 -0.6846672855104189 0.0
F F 0.5944129715678113 1.221337372534605 -0.6083856785281406 0.0
F F 0.5262816008139081 1.1193656379052073 -0.6223173116346707 0.0
F F 0.5867200100100922 1.1539794480876142 -0.7521754394589192 0.0
N N 0.27041447619470965 1.37313218397322 -0.19724396619194765 0.0
N N 0.17456297616897448 1.476454783515043 -0.4078405070991306 0.0
O O 0.33644609730956837 1.4742565693250973 -0.4924735833432475 0.0
O O 0.3156732264434776 1.3687991783110547 -0.4241733263042841 0.0
O O 0.26929015762995084 1.4308657629219939 -0.7243085967773671 0.0
O O 0.3546950639792259 1.479990700617601 -0.7613718355601397 0.0
Zn Zn 0.27316269968857937 1.443777517871398 -0.32400925315696255 0.0
C C -0.23581930380348182 -0.8939042051928869 -0.6023112073155263 0.0
H H -0.2346993038034818 -0.9444742051928869 -0.5873812073155262 0.0
C C -0.250640455648147 -0.8419234718124883 -0.5333056712593619 0.0
H H -0.2519204556481471 -0.8605934718124885 -0.46476567125936186 0.0
C C -0.24860364046752012 -0.7726784666278282 -0.5518515385938881 0.0
C C -0.24500138508657587 -0.7632019136668085 -0.6417531433779323 0.0
H H -0.2475713850865759 -0.7127719136668085 -0.6585131433779323 0.0
C C -0.2457074586916349 -0.8074816720948437 -0.7369846916248748 0.0
H H -0.24648745869163488 -0.7903616720948436 -0.8067546916248748 0.0
C C -0.35762537329346267 -0.9312638803694905 -0.9920745002517626 0.0
H H -0.33120537329346267 -0.8986338803694907 -1.0262445002517626 0.0
C C -0.4270703199957091 -0.94398499948447 -1.0308251135742432 0.0
H H -0.44595031999570905 -0.91705499948447 -1.091385113574243 0.0
C C -0.46378010076209336 -1.001016721582093 -0.9851049658733366 0.0
C C -0.42565248388982063 -1.0251659508769768 -0.8857309891114254 0.0
H H -0.45142248388982054 -1.0573359508769764 -0.8497909891114254 0.0
C C -0.36235746213476405 -1.0228735164674219 -0.853546226375357 0.0
H H -0.342137462134764 -1.049243516467422 -0.793106226375357 0.0
C C -0.16536926043788802 -0.9132961800409389 -0.9812491237690361 0.0
C C -0.12938465518454229 -0.852177904400832 -1.0566375592345072 0.0
C C -0.07723382915255891 -0.8051754788129774 -1.0034449893639514 0.0
H H -0.07761382915255889 -0.7912554788129773 -0.9324149893639514 0.0
C C -0.04668572312111705 -0.7521938235419867 -1.084529338342294 0.0
H H -0.021065723121117045 -0.7118738235419867 -1.053689338342294 0.0
C C -0.04608653647826665 -0.7835199199907898 -1.1784918976350556 0.0
C C -0.07091558531592168 -0.8328345511766959 -1.2271377291708634 0.0
H H -0.0680955853159217 -0.8479045511766958 -1.2969077291708637 0.0
C C -0.11634815701592077 -0.8763208368964397 -1.1537121821789231 0.0
C C -0.1639387775831683 -0.9325763207662112 -1.204870351987591 0.0
C C -0.0027594810777603583 -0.7362899863809447 -1.2471651277584914 0.0
C C 0.051677582793683084 -0.6753378227609524 -1.1871596479928928 0.0
F F 0.08987599544738059 -0.7207861178756959 -1.1102294126611165 0.0
F F 0.03090369001882873 -0.6156785220115872 -1.1407934311778323 0.0
F F 0.10140160008916 -0.6522284762607005 -1.2433246149342938 0.0
N N -0.2267210199449809 -0.879682585346813 -0.6984174519248585 0.0
N N -0.32960969953823804 -0.9776280531616759 -0.9030995098593844 0.0
O O -0.16794118862774368 -0.9676411785883541 -1.0087915473404752 0.0
O O -0.1885464986705378 -0.8592216098134425 -0.9273650671314494 0.0
O O -0.22247207107285522 -0.9279229476377282 -1.2097369058716063 0.0
O O -0.13551926451088778 -0.9812822910367653 -1.255941373914175 0.0
Zn Zn -0.21761925435991672 -0.9492274998052012 -0.8172617281746647 0.0
C C 0.2442340825982735 -0.8973741912124871 0.10480126148843524 0.0
H H 0.2431140825982735 -0.9479441912124871 0.08987126148843524 0.0
C C 0.24496708927910454 -0.8496241055444134 0.025118728316958314 0.0
H H 0.24624708927910455 -0.8682941055444134 -0.04342127168304167 0.0
C C 0.2502540369706292 -0.779966707569864 0.03457360271024071 0.0
C C 0.24100014733905137 -0.7532456290276439 0.1339532409087951 0.0
H H 0.24357014733905133 -0.7028156290276439 0.15071324090879507 0.0
C C 0.24099956001936268 -0.7996159535052101 0.21727639564907483 0.0
H H 0.24177956001936263 -0.7824959535052101 0.2870463956490748 0.0
C C 0.3543229929959748 -0.9412609010106321 0.4958802637315776 0.0
H H 0.32790299299597475 -0.9086309010106322 0.5300502637315777 0.0
C C 0.4227496987410789 -0.9450349006045915 0.5124374234019915 0.0
H H 0.4416296987410788 -0.9181049006045915 0.5729974234019914 0.0
C C 0.45534965775491054 -0.9886327024770378 0.4719420096119026 0.0
C C 0.4344026597352778 -1.0241977669765134 0.3885390375037597 0.0
H H 0.4601726597352777 -1.0563677669765132 0.35259903750375976 0.0
C C 0.36064156888742044 -1.019298834928664 0.3552837596557066 0.0
H H 0.3404215688874204 -1.045668834928664 0.2948437596557065 0.0
C C 0.1635666690969401 -0.906280012469567 0.48864451736730974 0.0
C C 0.12024734971215392 -0.8627623096056132 0.5627050041921955 0.0
C C 0.08619442872048101 -0.7971206387462015 0.5115624410147095 0.0
H H 0.08657442872048099 -0.7832006387462016 0.4405324410147094 0.0
C C 0.045472649698222956 -0.7506693147562409 0.5631864987116062 0.0
H H 0.019852649698222966 -0.7103493147562409 0.5323464987116062 0.0
C C 0.03722845151516634 -0.7839086395411585 0.6726010715964271 0.0
C C 0.0743748456469009 -0.8400437913384318 0.7246351009165377 0.0
H H 0.07155484564690091 -0.8551137913384317 0.7944051009165379 0.0
C C 0.1176513496323805 -0.8810532960284113 0.6586605895430013 0.0
C C 0.1749772003789138 -0.93578768638162 0.7206493955425209 0.0
C C -0.0020125704239492004 -0.7253317763622282 0.7363839537400602 0.0
C C -0.047132161961330715 -0.6779149856222254 0.6834225823911652 0.0
F F -0.09778876616508442 -0.7166849842861425 0.6173958915864013 0.0
F F -0.023555848929703964 -0.6237086928979139 0.6258793551620336 0.0
F F -0.09285253765485833 -0.6454127960947067 0.7483812165428986 0.0
N N 0.2421025236548721 -0.8715970887852246 0.21289142609885525 0.0
N N 0.3240074593461932 -0.9771223214054223 0.397422692505068 0.0
O O 0.1733541154380876 -0.9814640140256483 0.5100739861819311 0.0
O O 0.1947775819498753 -0.8748259638585754 0.42682985711308835 0.0
O O 0.22431724919057097 -0.9393285087580892 0.7154092458457313 0.0
O O 0.1450519656743182 -0.9801048352655678 0.7497456570243392 0.0
Zn Zn 0.2172251414508008 -0.9556360472880199 0.3222542505481464 0.0
C C 0.2624018579799437 -0.3971733774726335 -0.5960981055395776 0.0
H H 0.26352185797994365 -0.4477433774726334 -0.5811681055395777 0.0
C C 0.25776835006014315 -0.35134509926399154 -0.521103288436119 0.0
H H 0.2564883500601432 -0.37001509926399156 -0.45256328843611904 0.0
C C 0.2587528036738786 -0.27472923500007984 -0.5462283064701696 0.0
C C 0.25041635467520496 -0.25261924030244526 -0.6407377055585282 0.0
H H 0.2478463546752049 -0.20218924030244526 -0.6574977055585282 0.0
C C 0.2630053871676897 -0.3053655973291326 -0.7138082971652763 0.0
H H 0.2622253871676897 -0.28824559732913263 -0.7835782971652763 0.0
C C 0.13918674114505292 -0.4362065005054789 -0.9824870209496963 0.0
H H 0.1656067411450529 -0.40357650050547894 -1.0166570209496963 0.0
C C 0.08659105863965527 -0.4459729806669863 -1.024591380377704 0.0
H H 0.06771105863965529 -0.41904298066698636 -1.0851513803777038 0.0
C C 0.0390232935088643 -0.4896118825057319 -0.9727266106907404 0.0
C C 0.07124436240309658 -0.5307409681229962 -0.8958193610424824 0.0
H H 0.045474362403096574 -0.562910968122996 -0.8598793610424822 0.0
C C 0.13284346898533103 -0.5184301684769332 -0.8545874679292078 0.0
H H 0.15306346898533105 -0.5448001684769332 -0.7941474679292078 0.0
C C 0.3300104879175196 -0.4096908551227368 -0.9803124256152107 0.0
C C 0.38025589994542913 -0.36574676476447116 -1.0527947115631704 0.0
C C 0.415949350736063 -0.29977267947324543 -0.9991508582529127 0.0
H H 0.415569350736063 -0.2858526794732455 -0.9281208582529128 0.0
C C 0.45975890639269296 -0.2642990565935729 -1.0722697767519693 0.0
H H 0.48537890639269293 -0.2239790565935729 -1.0414297767519696 0.0
C C 0.4617515508306841 -0.28190283424593127 -1.1768274205961844 0.0
C C 0.42806140001185045 -0.347015305899456 -1.2138748073513252 0.0
H H 0.43088140001185044 -0.3620853058994559 -1.2836448073513256 0.0
C C 0.3857203609195272 -0.38243789396192246 -1.1465758102147718 0.0
C C 0.32848234040609725 -0.44268671684840655 -1.2155981836370087 0.0
C C 0.49666810995493615 -0.23508628266950174 -1.2501247434797165 0.0
C C 0.5509103640884783 -0.174630952565246 -1.1953137508860323 0.0
F F 0.5869300051863374 -0.21227549524481956 -1.1124507737004985 0.0
F F 0.5320172009531162 -0.13252464202480407 -1.1293009815389834 0.0
F F 0.5959482308983626 -0.14714413649121272 -1.2563053918745788 0.0
N N 0.26851164726789345 -0.37729940147286023 -0.7090731379166839 0.0
N N 0.1808134094413565 -0.4790837399946792 -0.8818346452127336 0.0
O O 0.32522722752301586 -0.46961770329530544 -1.0032510935225818 0.0
O O 0.31731520555801135 -0.3682386634942036 -0.911158192634937 0.0
O O 0.2739467289431129 -0.434372131976487 -1.2166682930451023 0.0
O O 0.3525040548944171 -0.48689926244083565 -1.2517506987348916 0.0
Zn Zn 0.27655333601178267 -0.4500282134841425 -0.8195667820666662 0.0
C C 0.7413835631971858 -0.4035090787509958 0.11701863558400379 0.0
H H 0.7402635631971858 -0.4540790787509958 0.10208863558400379 0.0
C C 0.7458533260697549 -0.35435514406406443 0.02067842746527352 0.0
H H 0.7471333260697549 -0.3730251440640645 -0.04786157253472647 0.0
C C 0.7470168250763977 -0.28390605605579045 0.039834401060112774 0.0
C C 0.7456304850675064 -0.24993320752932005 0.14446216558805333 0.0
H H 0.7482004850675064 -0.19950320752932005 0.16122216558805333 0.0
C C 0.7470476841669292 -0.30271388771346003 0.22457254806259286 0.0
H H 0.7478276841669292 -0.28559388771346006 0.2943425480625928 0.0
C C 0.8526274717832324 -0.4371136356183309 0.47667299461641766 0.0
H H 0.8262074717832322 -0.4044836356183309 0.5108429946164177 0.0
C C 0.9197862917007759 -0.4443582244574559 0.521385870470276 0.0
H H 0.9386662917007759 -0.4174282244574559 0.5819458704702759 0.0
C C 0.962316719655811 -0.4962729028066766 0.4861871447469379 0.0
C C 0.9281877076361511 -0.5404060207854364 0.3899681604051518 0.0
H H 0.9539577076361513 -0.5725760207854361 0.35402816040515184 0.0
C C 0.8681560406874517 -0.5112224122596305 0.3459797080693747 0.0
H H 0.8479360406874517 -0.5375924122596305 0.2855397080693747 0.0
C C 0.6612476321025068 -0.39375099275709813 0.4866013222032547 0.0
C C 0.6260567819123121 -0.35776695219762966 0.5430223944144551 0.0
C C 0.5861585166573653 -0.29029372718323904 0.5172248936880047 0.0
H H 0.5865385166573652 -0.27637372718323916 0.44619489368800463 0.0
C C 0.5437787280052965 -0.2519605647542801 0.564510547478326 0.0
H H 0.5181587280052964 -0.21164056475428006 0.533670547478326 0.0
C C 0.5461201162007436 -0.2814696970288652 0.6875380273589178 0.0
C C 0.5749140392996415 -0.32926795263853786 0.7195242851109138 0.0
H H 0.5720940392996415 -0.34433795263853784 0.7892942851109139 0.0
C C 0.6211923026581229 -0.3797881430763694 0.6718937721524345 0.0
C C 0.6743216079770165 -0.44220900594358364 0.7199292629672344 0.0
C C 0.4922210319512679 -0.2249559428867775 0.7401623954483834 0.0
C C 0.4464715377206017 -0.1785172159455621 0.6925498936832686 0.0
F F 0.4088859154603678 -0.22106532225838205 0.6237324462037823 0.0
F F 0.4640885228890912 -0.11897197972594967 0.6330706242458206 0.0
F F 0.4119798561151562 -0.14915864442549318 0.7554776730344622 0.0
N N 0.73539009417591 -0.38496633860799134 0.21189279062531055 0.0
N N 0.827677141167845 -0.4765125522108414 0.4048952641412891 0.0
O O 0.670552691496855 -0.46589025641446646 0.4994980179328686 0.0
O O 0.6884321298553348 -0.37408160145473823 0.4192670357882084 0.0
O O 0.7249782005107097 -0.42598475879712294 0.7184899357272934 0.0
O O 0.6348637161095625 -0.4878424801280526 0.7571365924250845 0.0
Zn Zn 0.7292215888451752 -0.45574355183233184 0.3386461840659038 0.0
_cell_length_a 19.5206
_cell_length_b 17.9856
_cell_length_c 12.6054
_cell_angle_alpha 90.0
_cell_angle_beta 99.0355
_cell_angle_gamma 90.0
_symmetry_space_group_name_H-M         'P 1'
_symmetry_Int_Tables_number            1
loop_
_symmetry_equiv_pos_as_xyz
   'x, y, z'
                         
loop_
_atom_site_label
_atom_site_type_symbol
_atom_site_fract_x 
_atom_site_fract_y
_atom_site_fract_z
_atom_site_charge
C C 0.23195903817542526 0.902401193342277 0.5977470312807704 0.0
H H 0.23083903817542525 0.952971193342277 0.5828170312807704 0.0
C C 0.24105974973387634 0.8460921790874916 0.5218466786487276 0.0
H H 0.24233974973387637 0.8647621790874918 0.4533066786487276 0.0
C C 0.24400176364146725 0.7765078907031089 0.541417978971935 0.0
C C 0.2475789551551833 0.7464547029334372 0.6584865845276012 0.0
H H 0.2501489551551833 0.6960247029334372 0.6752465845276012 0.0
C C 0.24360176363969208 0.812167884214181 0.7228592361648762 0.0
H H 0.24438176363969205 0.7950478842141809 0.7926292361648762 0.0
C C 0.34827719719684286 0.9325340144370059 0.9787753538148709 0.0
H H 0.32185719719684286 0.8999040144370061 1.012945353814871 0.0
C C 0.42148695434226896 0.9559979404955116 1.0211830699694686 0.0
H H 0.4403669543422689 0.9290679404955114 1.0817430699694686 0.0
C C 0.4572921328181548 0.9974875742220805 0.9694724378697719 0.0
C C 0.4221128709222264 1.0319010323369169 0.8847488808611831 0.0
H H 0.44788287092222623 1.0640710323369167 0.848808880861183 0.0
C C 0.3582584819633069 1.0164738147479846 0.847770446702282 0.0
H H 0.3380384819633069 1.0428438147479846 0.7873304467022818 0.0
C C 0.16643371473294308 0.9085449720176607 0.9914537666617235 0.0
C C 0.11630853243874754 0.8640533473954892 1.0447598234444286 0.0
C C 0.08612956121109529 0.7918710359280482 1.0188382124665503 0.0
H H 0.08650956121109528 0.7779510359280482 0.9478082124665502 0.0
C C 0.04957060336053957 0.7569256636282713 1.0766215370229626 0.0
H H 0.02395060336053956 0.7166056636282713 1.0457815370229626 0.0
C C 0.04024346708387724 0.7739140176778767 1.1868216483042957 0.0
C C 0.07011818531916224 0.8351474899762669 1.2122852147071286 0.0
H H 0.06729818531916226 0.8502174899762668 1.2820552147071287 0.0
C C 0.1266878975292218 0.8753598067159271 1.168362022606685 0.0
C C 0.1668451851464686 0.9359068140584199 1.2106882018357812 0.0
C C 0.0016910253043479668 0.7218189290636278 1.2521643932053144 0.0
C C -0.05607099731466671 0.673725524030562 1.1845942041751605 0.0
F F -0.08659046059418592 0.7117325043597863 1.1178867382547983 0.0
F F -0.03210613234847732 0.627820764478518 1.1303680092505757 0.0
F F -0.09210817768591328 0.6551513269610258 1.2567212982011262 0.0
N N 0.22847776852934093 0.878266739319289 0.7052755688377917 0.0
N N 0.32653157530269944 0.9710551655691022 0.9043871601387506 0.0
O O 0.17231827543841394 0.9766751916974697 0.9887660675177486 0.0
O O 0.19234304226193244 0.8658115953052048 0.9263094552780512 0.0
O O 0.22923007045950358 0.9311319960330288 1.204483582840712 0.0
O O 0.1454871867319667 0.987791768047798 1.2509763858967995 0.0
Zn Zn 0.21873011696822622 0.9452128813635691 0.8331245023135958 0.0
C C -0.23811246438765668 0.9023180744783921 -0.11715560325476776 0.0
H H -0.2369924643876567 0.9528880744783921 -0.10222560325476776 0.0
C C -0.23829079051322433 0.8507663763246452 -0.02793529066574164 0.0
H H -0.23957079051322436 0.8694363763246454 0.040604709334258346 0.0
C C -0.25180917890708576 0.7703829163256156 -0.038796537650108466 0.0
C C -0.24894781224156595 0.7471501722230952 -0.13629075319605655 0.0
H H -0.2515178122415659 0.6967201722230952 -0.15305075319605654 0.0
C C -0.23793541870487153 0.8144587529142896 -0.22538914809098543 0.0
H H -0.23871541870487148 0.7973387529142896 -0.2951591480909854 0.0
C C -0.36269563923208586 0.9420745821087092 -0.4893715353771571 0.0
H H -0.33627563923208587 0.9094445821087094 -0.5235415353771572 0.0
C C -0.42069201970730125 0.9441501286234832 -0.5326127542553438 0.0
H H -0.4395720197073012 0.9172201286234832 -0.5931727542553438 0.0
C C -0.46187740574655084 0.9966302817703132 -0.46714762486616235 0.0
C C -0.43496207918707663 1.032065776678354 -0.3836984459313093 0.0
H H -0.4607320791870766 1.064235776678354 -0.3477584459313094 0.0
C C -0.3634546753297908 1.0100835475954844 -0.34499483804893866 0.0
H H -0.3432346753297908 1.0364535475954846 -0.28455483804893855 0.0
C C -0.16282451498069164 0.896360224379323 -0.48421845978221234 0.0
C C -0.11938975810973297 0.861774472557104 -0.5588111927568911 0.0
C C -0.08025950898886201 0.8076530151460891 -0.517328864722646 0.0
H H -0.080639508988862 0.7937330151460892 -0.44629886472264596 0.0
C C -0.042085353504590944 0.7508701069417683 -0.5634095399071993 0.0
H H -0.01646535350459095 0.7105501069417682 -0.5325695399071994 0.0
C C -0.0428868506907654 0.769743446216021 -0.6702417667930922 0.0
C C -0.08077754779079525 0.8386435008251703 -0.7147500424183187 0.0
H H -0.07795754779079526 0.8537135008251702 -0.7845200424183189 0.0
C C -0.12350681449449352 0.8779288050782933 -0.6520332414693037 0.0
C C -0.16167905325612678 0.9386047960467365 -0.7105637563597109 0.0
C C -0.008500964438610892 0.7269303001357619 -0.7522575956001395 0.0
C C 0.062032927051737304 0.6802232930220753 -0.6838301120095893 0.0
F F 0.10034922601190939 0.7211854565782144 -0.5970389435202544 0.0
F F 0.03193328237736765 0.6260035825229754 -0.6430262227133137 0.0
F F 0.0942402051861716 0.6451749654702252 -0.7533326097219866 0.0
N N -0.23499408268322372 0.8867553775709276 -0.21602379880399963 0.0
N N -0.3249576200266424 0.9659736163499533 -0.40184545374368047 0.0
O O -0.17691833235430499 0.9661744157826694 -0.5074222865320587 0.0
O O -0.1907664357535498 0.8698732767156597 -0.4313842296918688 0.0
O O -0.22831162897074175 0.9399951464769619 -0.722505092182045 0.0
O O -0.14288717868740905 0.9904941387200945 -0.7628901629817737 0.0
Zn Zn -0.21823806271262816 0.9410814213340832 -0.3267543562772969 0.0
C C 0.7316179902805264 1.4046384066869348 0.606584548443411 0.0
H H 0.7304979902805264 1.4552084066869349 0.591654548443411 0.0
C C 0.7369594384418581 1.3473833287281853 0.5250140006470434 0.0
H H 0.738239438441858 1.3660533287281853 0.45647400064704335 0.0
C C 0.7429199788842685 1.286040874846706 0.5327964883625721 0.0
C C 0.7448569900151637 1.2478922016962255 0.6407370593959844 0.0
H H 0.7474269900151634 1.1974622016962255 0.6574970593959844 0.0
C C 0.7356086373469028 1.3093509766545406 0.7111128350402943 0.0
H H 0.7363886373469027 1.2922309766545403 0.7808828350402945 0.0
C C 0.8535100188289249 1.432296233354741 0.9746705642474208 0.0
H H 0.8270900188289247 1.399666233354741 1.0088405642474207 0.0
C C 0.9194600347143197 1.4554737087992007 1.0192169632513488 0.0
H H 0.9383400347143197 1.4285437087992008 1.0797769632513488 0.0
C C 0.9631916742449268 1.503634005788546 0.9825706337285841 0.0
C C 0.9380623813239786 1.5338443641248456 0.8971944257342226 0.0
H H 0.9638323813239787 1.5660143641248454 0.8612544257342225 0.0
C C 0.8650772212321425 1.5191957440668356 0.8545601280821564 0.0
H H 0.8448572212321425 1.5455657440668353 0.7941201280821564 0.0
C C 0.6648545925773521 1.4117609432330318 0.9762586318230396 0.0
C C 0.6310299001733656 1.3634379389197504 1.060733979912515 0.0
C C 0.590541555376531 1.2928593358925968 1.0157734531643112 0.0
H H 0.5909215553765309 1.2789393358925971 0.9447434531643113 0.0
C C 0.5412246825218652 1.2560018214862936 1.0656313476714467 0.0
H H 0.5156046825218652 1.2156818214862937 1.0347913476714468 0.0
C C 0.5422415691524757 1.2736493370718263 1.1839125205485452 0.0
C C 0.5740051987763188 1.3390788230503496 1.2311684173166912 0.0
H H 0.5711851987763189 1.3541488230503496 1.3009384173166916 0.0
C C 0.623313085820461 1.3717698679586792 1.1662306532017919 0.0
C C 0.667946577542302 1.444888316461517 1.2156735148463622 0.0
C C 0.5020190788825525 1.2254767771655082 1.2533602200212768 0.0
C C 0.4432517309376523 1.175864963059162 1.1784538588714764 0.0
F F 0.4052463169399507 1.228817284072556 1.1101906700583455 0.0
F F 0.47126704258543944 1.1266320725737262 1.1288591009743314 0.0
F F 0.40296780969387985 1.1567918146501597 1.23678605236825 0.0
N N 0.7334579711626538 1.3738291313614055 0.6961520920892768 0.0
N N 0.8144035143050877 1.4789222009011096 0.8851728809765824 0.0
O O 0.666902604128573 1.4656547093931322 0.9970144198151386 0.0
O O 0.6908033129721936 1.365729064857143 0.919228770582968 0.0
O O 0.7224564901843147 1.4309744651395577 1.2065194596794009 0.0
O O 0.6389035479784957 1.493285064315562 1.2585074252597346 0.0
Zn Zn 0.7220947901361375 1.4496686005554427 0.8286359211126356 0.0
C C 0.2602036660666778 1.3982465343415134 -0.10593318357842464 0.0
H H 0.2613236660666778 1.4488165343415131 -0.09100318357842464 0.0
C C 0.25196197215329136 1.351827585292492 -0.022150077852024604 0.0
H H 0.2506819721532914 1.3704975852924919 0.04638992214797538 0.0
C C 0.2580952758861927 1.2801578029557181 -0.04899155335390046 0.0
C C 0.2529756663685041 1.2543223780717552 -0.15794749395400678 0.0
H H 0.25040566636850403 1.2038923780717552 -0.17470749395400675 0.0
C C 0.26282116250909876 1.2987808907995024 -0.21145752066894158 0.0
H H 0.26204116250909876 1.2816608907995022 -0.2812275206689416 0.0
C C 0.15113636480195186 1.4437505064729899 -0.48038357560995537 0.0
H H 0.1775563648019519 1.4111205064729897 -0.5145535756099554 0.0
C C 0.07495964737701072 1.4402774377677774 -0.5159678307740531 0.0
H H 0.05607964737701069 1.4133474377677775 -0.576527830774053 0.0
C C 0.04046705140750516 1.5016968947119091 -0.4793674587735262 0.0
C C 0.0642998870542899 1.535577797117908 -0.3832553302123136 0.0
H H 0.03852988705428989 1.5677477971179081 -0.3473153302123137 0.0
C C 0.13968748006108364 1.5160947560448625 -0.3458608008245336 0.0
H H 0.15990748006108368 1.5424647560448626 -0.28542080082453347 0.0
C C 0.3381337532015265 1.3996303762133382 -0.47558909613159017 0.0
C C 0.38258672001761773 1.350024453798188 -0.5449990018948345 0.0
C C 0.4159292914592478 1.2924960763883375 -0.5197213123996134 0.0
H H 0.4155492914592478 1.2785760763883378 -0.44869131239961324 0.0
C C 0.4635400066050978 1.2550917669031616 -0.5764630208311273 0.0
H H 0.4891600066050978 1.2147717669031617 -0.5456230208311272 0.0
C C 0.46112159156706095 1.277283510796208 -0.6636052547369616 0.0
C C 0.42726267353285224 1.3412866199173104 -0.7102409540633139 0.0
H H 0.4300826735328521 1.3563566199173103 -0.780010954063314 0.0
C C 0.37289718256998344 1.38109275536742 -0.662422265321741 0.0
C C 0.33835752366565164 1.4312531279775755 -0.7143836735153625 0.0
C C 0.5011812989977772 1.2252250687667159 -0.7459607222707038 0.0
C C 0.5586276837013582 1.1895658988823061 -0.6912794193127005 0.0
F F 0.5934408292870156 1.2192094369751023 -0.6092498158076665 0.0
F F 0.5220063766014312 1.1177878682621276 -0.6393095871910427 0.0
F F 0.6011324134100969 1.1551665973695178 -0.7577539570512746 0.0
N N 0.2604594319508013 1.3757531011066109 -0.2166422241352502 0.0
N N 0.16901310233833228 1.4694152202939443 -0.396329650479581 0.0
O O 0.32636617477452506 1.4739502380339002 -0.5023307855534983 0.0
O O 0.31172110868247177 1.3731472734067809 -0.4248335105613647 0.0
O O 0.2790445151291319 1.4375854123653204 -0.7105812651380531 0.0
O O 0.35391430617628794 1.4933054787601874 -0.7732651596017465 0.0
Zn Zn 0.27211913313639774 1.4457390077288041 -0.32382381797357085 0.0
C C -0.23613233558969934 -0.9003354690283448 -0.5964638318345159 0.0
H H -0.2350123355896993 -0.9509054690283448 -0.5815338318345158 0.0
C C -0.24321648778815597 -0.8512996180777278 -0.5177379854493966 0.0
H H -0.244496487788156 -0.8699696180777279 -0.44919798544939665 0.0
C C -0.24360529119807098 -0.7757654723392675 -0.5461965565304571 0.0
C C -0.254349912138384 -0.7487943515689317 -0.6540972406479632 0.0
H H -0.256919912138384 -0.6983643515689317 -0.6708572406479631 0.0
C C -0.24704896883967833 -0.8104495858368886 -0.7306269231405074 0.0
H H -0.2478289688396783 -0.7933295858368886 -0.8003969231405074 0.0
C C -0.3572747629563998 -0.9414763512037422 -0.9753937568028214 0.0
H H -0.33085476295639976 -0.9088463512037422 -1.0095637568028213 0.0
C C -0.41650570474565607 -0.9513169144428061 -1.0179578278949415 0.0
H H -0.435385704745656 -0.9243869144428061 -1.0785178278949414 0.0
C C -0.4633902194899668 -1.0014588230794828 -0.9782794037273967 0.0
C C -0.4372756770982263 -1.0324553047397076 -0.8907685210097918 0.0
H H -0.4630456770982262 -1.0646253047397072 -0.8548285210097917 0.0
C C -0.36516289242162675 -1.020948317718957 -0.8414076835847254 0.0
H H -0.3449428924216266 -1.0473183177189571 -0.7809676835847253 0.0
C C -0.16177935003145447 -0.8993627613207461 -0.9782424095025193 0.0
C C -0.12615753231258897 -0.850677308572031 -1.0562882122535517 0.0
C C -0.08117859108973972 -0.7985189520164081 -1.0080156004052738 0.0
H H -0.0815585910897397 -0.7845989520164081 -0.9369856004052738 0.0
C C -0.04608412072817508 -0.7613035276758037 -1.083834549572623 0.0
H H -0.020464120728175078 -0.7209835276758036 -1.0529945495726232 0.0
C C -0.045190174801356016 -0.7688488552028583 -1.186710664438033 0.0
C C -0.08247034465142057 -0.8296146445818424 -1.2216793078477937 0.0
H H -0.07965034465142058 -0.8446846445818422 -1.2914493078477938 0.0
C C -0.11695634259258901 -0.8827462688394191 -1.1586800200633665 0.0
C C -0.16120488072274966 -0.9435075814631131 -1.2122135874580002 0.0
C C 0.006768904045377712 -0.7302469666452014 -1.2471830783864555 0.0
C C 0.05461875075359094 -0.6879092297661547 -1.1902704554668855 0.0
F F 0.08951736214225445 -0.7272694779176008 -1.10400946523286 0.0
F F 0.03209191778934159 -0.6190897083273504 -1.1417272088460806 0.0
F F 0.08855752646890372 -0.6442363061526833 -1.2549135858959188 0.0
N N -0.23392889614740547 -0.871130393939748 -0.6992843411561233 0.0
N N -0.3131522413974748 -0.9755977268259618 -0.8889507463954835 0.0
O O -0.17040613464015486 -0.9798486941310014 -1.0021848607202613 0.0
O O -0.18659609366940788 -0.8615969635228958 -0.9291385003689278 0.0
O O -0.23329421831350736 -0.9413580520256807 -1.216669803178971 0.0
O O -0.14124597901604188 -0.9907720225577282 -1.261051827833211 0.0
Zn Zn -0.22460107265389712 -0.9500425356124906 -0.836502981638057 0.0
C C 0.24397091239573684 -0.890074199160343 0.10900698577498345 0.0
H H 0.24285091239573683 -0.9406441991603429 0.09407698577498345 0.0
C C 0.24178599616878757 -0.8563218127502089 0.034694316504127735 0.0
H H 0.2430659961687876 -0.874991812750209 -0.033845683495872254 0.0
C C 0.2529197184975811 -0.7791013540730007 0.04612028869589107 0.0
C C 0.24487410337799662 -0.7564276252965391 0.1398492662589664 0.0
H H 0.2474441033779966 -0.7059976252965391 0.1566092662589664 0.0
C C 0.24077462322735046 -0.8019865113639105 0.21295521043417368 0.0
H H 0.24155462322735044 -0.7848665113639104 0.28272521043417365 0.0
C C 0.35619231990504485 -0.933023638098611 0.47336089473964926 0.0
H H 0.32977231990504485 -0.9003936380986112 0.5075308947396493 0.0
C C 0.41503411764335285 -0.9465318927069039 0.5199096586036299 0.0
H H 0.4339141176433528 -0.9196018927069038 0.5804696586036299 0.0
C C 0.4649699050848252 -0.9979503254614828 0.48921659493081915 0.0
C C 0.4316227952447346 -1.0284927722319994 0.3762490913876849 0.0
H H 0.45739279524473453 -1.0606627722319992 0.34030909138768495 0.0
C C 0.3590796465509344 -1.0253933157757666 0.3594548328329166 0.0
H H 0.3388596465509343 -1.0517633157757666 0.2990148328329166 0.0
C C 0.17099328577060305 -0.9029298393215036 0.4812644923807246 0.0
C C 0.12081640069730827 -0.8589188532731425 0.5492179142932074 0.0
C C 0.08107462521081651 -0.7925234583462442 0.512531127084349 0.0
H H 0.08145462521081648 -0.7786034583462442 0.44150112708434885 0.0
C C 0.043529369815093207 -0.7547832786104668 0.5778806131665378 0.0
H H 0.017909369815093206 -0.7144632786104668 0.5470406131665378 0.0
C C 0.03898248397868142 -0.7806598480082727 0.6783149240073977 0.0
C C 0.07540042293022088 -0.8453174482953658 0.7233363714212904 0.0
H H 0.0725804229302209 -0.8603874482953657 0.7931063714212905 0.0
C C 0.12082678737919729 -0.8709459461445466 0.6585286232598422 0.0
C C 0.16875664748046637 -0.9433397426373894 0.7223064809519205 0.0
C C -0.0034299478540967348 -0.7340664593646374 0.7505087448745641 0.0
C C -0.04593994612572859 -0.6809587271891323 0.6956179756870068 0.0
F F -0.08954191212360949 -0.7230986980902209 0.6054853244680591 0.0
F F -0.02400927750099584 -0.6314920926250216 0.6315100804741507 0.0
F F -0.09825439776756324 -0.6532338752055272 0.7394722134610952 0.0
N N 0.24316914598616224 -0.877957607977401 0.2057560471882484 0.0
N N 0.321203217781441 -0.9692980652315836 0.40230172766308087 0.0
O O 0.17639420396328867 -0.9746410875434922 0.49864697893380994 0.0
O O 0.1967568037836627 -0.8649481123200757 0.43060473191925214 0.0
O O 0.2271299084258447 -0.9274966932728969 0.7239288928113787 0.0
O O 0.14250693829425795 -0.9846764190951682 0.7604461697985101 0.0
Zn Zn 0.2192305447628629 -0.9558224101543421 0.32220056080492654 0.0
C C 0.25504098015756843 -0.3997545357753771 -0.6077039901363014 0.0
H H 0.25616098015756844 -0.450324535775377 -0.5927739901363014 0.0
C C 0.2612758502658257 -0.3487998869540583 -0.5249157297101026 0.0
H H 0.25999585026582583 -0.3674698869540583 -0.4563757297101026 0.0
C C 0.2480118080655492 -0.28185095867309684 -0.5459942585904646 0.0
C C 0.2454231025516358 -0.2552580311319803 -0.6447921962643677 0.0
H H 0.24285310255163575 -0.20482803113198034 -0.6615521962643677 0.0
C C 0.2619031097767925 -0.3152594054740529 -0.7207827051134007 0.0
H H 0.2611231097767925 -0.2981394054740529 -0.7905527051134007 0.0
C C 0.14725488457728175 -0.44146998660644393 -0.986769208706681 0.0
H H 0.17367488457728172 -0.408839986606444 -1.0209392087066809 0.0
C C 0.08208751419852628 -0.448989674904639 -1.0301811480643666 0.0
H H 0.06320751419852626 -0.42205967490463897 -1.0907411480643665 0.0
C C 0.04234505491791333 -0.4975214460135648 -0.9707237426585922 0.0
C C 0.06922682989026328 -0.5271462343503308 -0.8949148216991878 0.0
H H 0.043456829890263254 -0.5593162343503305 -0.8589748216991877 0.0
C C 0.13938891996511388 -0.521388355884354 -0.8368946713186358 0.0
H H 0.1596089199651139 -0.547758355884354 -0.7764546713186357 0.0
C C 0.3325638947869588 -0.3959342714015544 -0.9920203650103596 0.0
C C 0.37309890734234374 -0.3589293335965031 -1.0559623103389681 0.0
C C 0.41277746864280435 -0.2965262248595758 -1.0080390502354755 0.0
H H 0.4123974686428044 -0.28260622485957587 -0.9370090502354755 0.0
C C 0.46330569661614085 -0.26457764945055523 -1.060473707400989 0.0
H H 0.4889256966161408 -0.2242576494505552 -1.0296337074009891 0.0
C C 0.46238686438695187 -0.2759311103257204 -1.169854895362867 0.0
C C 0.41588678566537646 -0.33338462199527624 -1.2216391260611834 0.0
H H 0.41870678566537645 -0.34845462199527616 -1.2914091260611837 0.0
C C 0.379338990415644 -0.3787246199989857 -1.1708044465772705 0.0
C C 0.3329120549241502 -0.42794993670903514 -1.2256702289458756 0.0
C C 0.4972086044026247 -0.23093924581724487 -1.263906138199689 0.0
C C 0.5589186574456748 -0.17458931528022753 -1.177693030589277 0.0
F F 0.5986678371466783 -0.22670818770194 -1.1028825382420329 0.0
F F 0.5314169060341043 -0.1343170291047585 -1.1244730061337296 0.0
F F 0.6015079961207348 -0.14741619950166698 -1.2421040484738575 0.0
N N 0.26525059247317967 -0.3854202090342577 -0.6982749765588481 0.0
N N 0.17657252370348797 -0.4798213516882513 -0.8893822992825746 0.0
O O 0.3226092966039174 -0.47853916735627317 -0.9996313814827774 0.0
O O 0.3106143750962048 -0.37330426714937054 -0.9125743304791525 0.0
O O 0.2687485017274357 -0.4295063558461532 -1.2216581285936106 0.0
O O 0.34944809650383957 -0.48519398424086346 -1.26236854975091 0.0
Zn Zn 0.27461172068913975 -0.45345094861463237 -0.837933027367612 0.0
C C 0.7469908184396931 -0.39486401368086815 0.10543913029559782 0.0
H H 0.745870818439693 -0.44543401368086805 0.09050913029559782 0.0
C C 0.7435218696246267 -0.3488627067852409 0.017455600140890242 0.0
H H 0.7448018696246267 -0.36753270678524097 -0.051084399859109744 0.0
C C 0.7397700124694597 -0.27579520195419477 0.03634768870961825 0.0
C C 0.7516384372523218 -0.2560278950821825 0.1531713922645216 0.0
H H 0.7542084372523219 -0.20559789508218254 0.16993139226452159 0.0
C C 0.7496794147877951 -0.30647113663356496 0.23445658820205423 0.0
H H 0.7504594147877951 -0.289351136633565 0.3042265882020542 0.0
C C 0.8512111299607303 -0.4433830193513979 0.49406020711678256 0.0
H H 0.8247911299607301 -0.41075301935139785 0.5282302071167826 0.0
C C 0.9206104383985237 -0.4512187716566184 0.5266830538090954 0.0
H H 0.9394904383985239 -0.42428877165661844 0.5872430538090954 0.0
C C 0.9569897724178348 -0.4934816826047771 0.4683289742630597 0.0
C C 0.9332997882034252 -0.531956154634078 0.38825754688725594 0.0
H H 0.9590697882034254 -0.5641261546340777 0.35231754688725603 0.0
C C 0.8631991168120297 -0.5189593559381328 0.35999631802660936 0.0
H H 0.8429791168120296 -0.5453293559381327 0.2995563180266093 0.0
C C 0.6579461862718272 -0.40940134997939537 0.4824014279379876 0.0
C C 0.6276777150820815 -0.3587792767682105 0.5696066466531744 0.0
C C 0.5817977290810452 -0.29788481331118133 0.49881152540802015 0.0
H H 0.5821777290810451 -0.28396481331118145 0.4277815254080201 0.0
C C 0.5467563364400692 -0.2691048613098961 0.5790938596715932 0.0
H H 0.5211363364400692 -0.2287848613098961 0.5482538596715932 0.0
C C 0.5450429666787082 -0.2764328508318777 0.675341140003489 0.0
C C 0.5834203498199206 -0.3393823656367887 0.7174356436187451 0.0
H H 0.5806003498199208 -0.35445236563678867 0.7872056436187452 0.0
C C 0.623770000207829 -0.3846601355858626 0.6672174993888152 0.0
C C 0.660009699134347 -0.4297598932584792 0.7087087999507358 0.0
C C 0.49955625284870475 -0.23739893951587493 0.7550159110583154 0.0
C C 0.4436921026204144 -0.18824475074293948 0.6829022761720587 0.0
F F 0.4043626086054214 -0.22610705807118675 0.6055085768343282 0.0
F F 0.48067849014899255 -0.13108687487297 0.6461643230571106 0.0
F F 0.40495372300207005 -0.15614415918090224 0.7574818649776851 0.0
N N 0.7432088583864501 -0.37259625216113273 0.2060137123576066 0.0
N N 0.8262068135311416 -0.4749634724200326 0.4045512242551888 0.0
O O 0.6669979482706794 -0.4761230851899284 0.5024809287047658 0.0
O O 0.6863034706878424 -0.3654217132837085 0.42646906963633 0.0
O O 0.7337250116087154 -0.43136388206539256 0.7205119498667845 0.0
O O 0.6396371594483434 -0.4835755513159794 0.7594515029967801 0.0
Zn Zn 0.7266751801318547 -0.45064027513061333 0.32219922173005744 0.0
