_cell_length_a 19.5206
_cell_length_b 17.9856
_cell_length_c 12.6054
_cell_angle_alpha 90.0
_cell_angle_beta 99.0355
_cell_angle_gamma 90.0
_symmetry_space_group_name_H-M         'P 1'
_symmetry_Int_Tables_number            1
loop_
_symmetry_equiv_pos_as_xyz
   'x, y, z'
                         
loop_
_atom_site_label
_atom_site_type_symbol
_atom_site_fract_x 
_atom_site_fract_y
_atom_site_fract_z
_atom_site_charge
C C 0.23498631763469482 0.9016532969912193 0.6144047576638066 0.0
H H 0.2338663176346948 0.9522232969912192 0.5994747576638066 0.0
C C 0.2514269020886512 0.848009050548203 0.540086592711184 0.0
H H 0.2527069020886512 0.8666790505482032 0.471546592711184 0.0
C C 0.2469953083596248 0.7804852242696493 0.552276582481653 0.0
C C 0.23806486477924335 0.7497060611906148 0.6418444726770476 0.0
H H 0.24063486477924337 0.6992760611906148 0.6586044726770476 0.0
C C 0.23267928932712284 0.8100943633543064 0.7109789108608515 0.0
H H 0.23345928932712282 0.7929743633543064 0.7807489108608515 0.0
C C 0.3521583408200707 0.9425503623392596 0.9892469569527361 0.0
H H 0.3257383408200707 0.9099203623392598 1.023416956952736 0.0
C C 0.42242292964153677 0.9486659818429675 1.0201106734539003 0.0
H H 0.4413029296415367 0.9217359818429675 1.0806706734539002 0.0
C C 0.4606674352066943 0.9997953375954497 0.9857668356761636 0.0
C C 0.4407454894244262 1.0228215962178206 0.888019594544144 0.0
H H 0.4665154894244261 1.0549915962178205 0.852079594544144 0.0
C C 0.3704792932979922 1.0239468522149966 0.852963220467615 0.0
H H 0.3502592932979922 1.0503168522149968 0.7925232204676148 0.0
C C 0.15502545866417441 0.9089149963947472 0.9849662740848519 0.0
C C 0.12265731578812207 0.8549636380287372 1.0538129534931864 0.0
C C 0.08273275439777276 0.7984723190097652 0.997828444491637 0.0
H H 0.08311275439777276 0.7845523190097652 0.926798444491637 0.0
C C 0.03360284689055792 0.7630166621673972 1.063662814506109 0.0
H H 0.007982846890557914 0.7226966621673971 1.0328228145061091 0.0
C C 0.03200059726187495 0.7865517152528354 1.181139292723001 0.0
C C 0.07403863203779897 0.8401483393015117 1.2281962162140463 0.0
H H 0.07121863203779899 0.8552183393015116 1.2979662162140466 0.0
C C 0.12649580191431403 0.8777733154121127 1.172358326629743 0.0
C C 0.17171806180697488 0.9318043716337827 1.2302356212221666 0.0
C C 0.009696888116918255 0.7247117671919769 1.2615828802117972 0.0
C C -0.054526443894071325 0.6800187585201015 1.1845877036233647 0.0
F F -0.09675828268555216 0.7242128253441795 1.09404058945964 0.0
F F -0.028413481499528357 0.6274693605815888 1.1481348765951842 0.0
F F -0.09552930005138686 0.6403381664233287 1.2518304568162306 0.0
N N 0.2322873135769411 0.8706280915806368 0.7066280468372724 0.0
N N 0.3181868297192472 0.9689865241629084 0.8863058800452434 0.0
O O 0.16701739740435947 0.9772670791600752 0.9975492332994502 0.0
O O 0.18646577388418262 0.8777715341806149 0.9134824846994033 0.0
O O 0.23466730308156422 0.9331027636456259 1.2261732281651985 0.0
O O 0.13786323675813345 0.9885783472791588 1.2691582039772797 0.0
Zn Zn 0.22568507818322434 0.9498479699322889 0.8171225563866952 0.0
C C -0.2414851892552265 0.8928081888825373 -0.10506072487544332 0.0
H H -0.2403651892552265 0.9433781888825372 -0.09013072487544334 0.0
C C -0.2497668140032681 0.8583296739778014 -0.035906740852229134 0.0
H H -0.2510468140032681 0.8769996739778014 0.032633259147770856 0.0
C C -0.2414607587840952 0.781898738042215 -0.04199051620708883 0.0
C C -0.24370751254923181 0.7574268830578855 -0.13582699801172762 0.0
H H -0.24627751254923175 0.7069968830578854 -0.15258699801172762 0.0
C C -0.24493656006130468 0.8079016829125272 -0.22428654755646538 0.0
H H -0.24571656006130466 0.7907816829125272 -0.2940565475564653 0.0
C C -0.36210739598818675 0.9366074534443135 -0.4824848024460027 0.0
H H -0.33568739598818675 0.9039774534443136 -0.5166548024460027 0.0
C C -0.4130678533171177 0.9489945499489358 -0.5212046162337687 0.0
H H -0.43194785331711766 0.9220645499489358 -0.5817646162337686 0.0
C C -0.4567545012868536 0.9982819974199311 -0.47537122058294773 0.0
C C -0.4278822397336176 1.0399730177430766 -0.39082628347231785 0.0
H H -0.45365223973361757 1.0721430177430764 -0.3548862834723179 0.0
C C -0.3580245841772651 1.0220586419755908 -0.3591696297121583 0.0
H H -0.33780458417726505 1.0484286419755908 -0.2987296297121582 0.0
C C -0.1693580395322748 0.9011966019160985 -0.479976293620763 0.0
C C -0.12159838236620372 0.8566688578633574 -0.5427691688713312 0.0
C C -0.0849856061556693 0.8016223804222363 -0.5219272234213805 0.0
H H -0.08536560615566928 0.7877023804222364 -0.4508972234213805 0.0
C C -0.0456972172542708 0.7643279731747128 -0.5810863066851865 0.0
H H -0.020077217254270797 0.7240079731747128 -0.5502463066851865 0.0
C C -0.041767525023925216 0.7778714625650842 -0.6811648828824611 0.0
C C -0.07795964502527374 0.8282405043512314 -0.7167052682997961 0.0
H H -0.07513964502527375 0.8433105043512313 -0.7864752682997962 0.0
C C -0.12614369896454683 0.8819641400857297 -0.6688874175633024 0.0
C C -0.17478517821505155 0.9393095392106404 -0.7127185802530319 0.0
C C 0.010086735877192641 0.7270664919637684 -0.7495220705253343 0.0
C C 0.053272904663034484 0.6840434735922887 -0.6833196310134124 0.0
F F 0.08427451590044907 0.7262908997873164 -0.6195986382832734 0.0
F F 0.028596420414012055 0.628619554703002 -0.630486601232437 0.0
F F 0.08854126152175348 0.6519318225076293 -0.7548736128843314 0.0
N N -0.24265531840495247 0.8801157509287049 -0.2079723409428063 0.0
N N -0.3265009851063654 0.9816540158197858 -0.3971461432753634 0.0
O O -0.16243905040395948 0.9725852712039784 -0.5006253874905577 0.0
O O -0.19990238307537897 0.8696753598077319 -0.4335238089055983 0.0
O O -0.22499094338340359 0.9400448777236771 -0.7075511656710448 0.0
O O -0.14000162420924314 0.9906737122363836 -0.7558295209734383 0.0
Zn Zn -0.21670652856889425 0.938565879705674 -0.3200582509191966 0.0
C C 0.7416521635244151 1.398198652992193 0.6239969281902421 0.0
H H 0.7405321635244152 1.448768652992193 0.6090669281902421 0.0
C C 0.744384297169094 1.3393047355340288 0.5321388607631626 0.0
H H 0.745664297169094 1.3579747355340288 0.46359886076316265 0.0
C C 0.7479717914481012 1.2815884661982924 0.5454407949161366 0.0
C C 0.7521037654877465 1.2474566534415343 0.6431083497776348 0.0
H H 0.7546737654877462 1.1970266534415344 0.6598683497776348 0.0
C C 0.7451276665871028 1.2953504232242081 0.7309144723051688 0.0
H H 0.7459076665871028 1.2782304232242079 0.8006844723051688 0.0
C C 0.854357848751453 1.4306212992253513 0.982833315502392 0.0
H H 0.8279378487514529 1.3979912992253514 1.0170033155023919 0.0
C C 0.9301984474632717 1.4456837358163772 1.037023479752342 0.0
H H 0.9490784474632716 1.4187537358163773 1.0975834797523418 0.0
C C 0.9552667294133778 1.4954489302792258 0.972270531856275 0.0
C C 0.9325902838149801 1.535218577500081 0.8774581721817443 0.0
H H 0.9583602838149803 1.567388577500081 0.8415181721817442 0.0
C C 0.8731984469287906 1.5171816302578573 0.8611273326391002 0.0
H H 0.8529784469287903 1.5435516302578574 0.8006873326391001 0.0
C C 0.6653130733209364 1.3993865396180163 0.9831037001124575 0.0
C C 0.6196113052472562 1.3548306229342622 1.0623658234589746 0.0
C C 0.5851970917157364 1.2911488732882783 1.0214125639249065 0.0
H H 0.5855770917157362 1.2772288732882786 0.9503825639249065 0.0
C C 0.5398584455433239 1.252173604876856 1.0656696472025189 0.0
H H 0.514238445543324 1.211853604876856 1.0348296472025191 0.0
C C 0.5350891797916014 1.2848871341812262 1.182864476586301 0.0
C C 0.5857880047445359 1.335982897551769 1.2271659564052668 0.0
H H 0.5829680047445359 1.3510528975517688 1.2969359564052672 0.0
C C 0.6289438468843274 1.37356297025235 1.1671516035998164 0.0
C C 0.6603422426392195 1.4370065877204625 1.2047476661117558 0.0
C C 0.5016614435475015 1.2357192276371678 1.2545247489960538 0.0
C C 0.44298484992282794 1.1779021366500213 1.1929407807818495 0.0
F F 0.4001058002539422 1.225080638842794 1.0973100810622012 0.0
F F 0.4744425901040832 1.1195359248090122 1.1366372317726618 0.0
F F 0.3974493409875481 1.1511851710384586 1.234457925201735 0.0
N N 0.7333108733770355 1.372867699312481 0.7035375301595129 0.0
N N 0.815304829084795 1.4750243226920108 0.8922605523226591 0.0
O O 0.6674203934092984 1.4707357105887313 0.9912371708789705 0.0
O O 0.6870050044843632 1.3728286475714182 0.9230701902952975 0.0
O O 0.7255066701818417 1.4317274868366778 1.2021133542863685 0.0
O O 0.6469452699603332 1.4899806745145705 1.2575310589966744 0.0
Zn Zn 0.7298659409132101 1.4513709630048215 0.838515699153458 0.0
C C 0.2587300439626178 1.3952176741428002 -0.10621526757532285 0.0
H H 0.25985004396261785 1.4457876741428 -0.09128526757532285 0.0
C C 0.25501371060874994 1.3505052028217919 -0.032796008504926734 0.0
H H 0.25373371060875 1.3691752028217918 0.035743991495073256 0.0
C C 0.2597838921187108 1.265402582783772 -0.034992185605202925 0.0
C C 0.25558507435933076 1.25855558371557 -0.15535563685736015 0.0
H H 0.25301507435933074 1.20812558371557 -0.17211563685736012 0.0
C C 0.25226464025003514 1.3042812321995714 -0.22785801336141992 0.0
H H 0.25148464025003514 1.2871612321995713 -0.29762801336141986 0.0
C C 0.14806201631184912 1.4434159490583134 -0.48702733240411333 0.0
H H 0.17448201631184915 1.4107859490583134 -0.5211973324041134 0.0
C C 0.07863157629842589 1.4542573854100025 -0.5349451221521404 0.0
H H 0.05975157629842586 1.4273273854100026 -0.5955051221521404 0.0
C C 0.04334847847296706 1.4911927990361966 -0.4783171346911652 0.0
C C 0.0715276842599863 1.5361206496974427 -0.3774049335987761 0.0
H H 0.04575768425998631 1.5682906496974427 -0.3414649335987761 0.0
C C 0.12938947121895905 1.5246476034150678 -0.34878028398931743 0.0
H H 0.14960947121895904 1.5510176034150676 -0.2883402839893173 0.0
C C 0.327759980456602 1.4109666691892926 -0.49468359540902945 0.0
C C 0.373737778046581 1.3530012590463592 -0.5626663061656038 0.0
C C 0.4193006927755572 1.2954656583176014 -0.5116922165633591 0.0
H H 0.4189206927755572 1.2815456583176017 -0.4406622165633589 0.0
C C 0.45110592246170905 1.2638243899171908 -0.5859959581390374 0.0
H H 0.47672592246170903 1.223504389917191 -0.5551559581390374 0.0
C C 0.4550675426419807 1.2839495390296087 -0.6819749907290132 0.0
C C 0.412875285599146 1.3406020497628894 -0.7306119713734525 0.0
H H 0.4156952855991458 1.3556720497628894 -0.8003819713734527 0.0
C C 0.38125155083459084 1.367051869314415 -0.6564135558770231 0.0
C C 0.33612387307924024 1.425643581385188 -0.706649035336478 0.0
C C 0.5048598165176621 1.2240311069402634 -0.7487082237977924 0.0
C C 0.5491103829467133 1.173610953034911 -0.6941995736227409 0.0
F F 0.6004975325667177 1.20979165451699 -0.6014509921676547 0.0
F F 0.5269823527747757 1.1188731569445391 -0.6301535715277086 0.0
F F 0.586617810581063 1.1602035042353962 -0.7551008782333616 0.0
N N 0.26319231974878227 1.3791321495401105 -0.21597364039164157 0.0
N N 0.1802431035646879 1.4802234133994563 -0.4030087802449387 0.0
O O 0.3270142591584554 1.479782524175081 -0.4969661901144621 0.0
O O 0.3023190271308966 1.3647559681957628 -0.43257007431341826 0.0
O O 0.26914012846631413 1.4327433132724028 -0.7054437821478626 0.0
O O 0.3520938839152614 1.4848191195695202 -0.7554038332924841 0.0
Zn Zn 0.28064345561816945 1.4415414010529222 -0.31974925965083706 0.0
C C -0.23796149294289612 -0.9014633600274312 -0.5940604137687613 0.0
H H -0.23684149294289608 -0.9520333600274312 -0.5791304137687613 0.0
C C -0.2445205935575703 -0.8411086472456487 -0.5293076164496049 0.0
H H -0.2458005935575703 -0.8597786472456488 -0.46076761644960484 0.0
C C -0.24787425785448491 -0.7686542521382403 -0.5336462570935934 0.0
C C -0.24761396193983773 -0.7594992081783501 -0.6590461498876107 0.0
H H -0.2501839619398378 -0.7090692081783502 -0.6758061498876107 0.0
C C -0.23734769701730138 -0.8112886577093589 -0.7157983248734916 0.0
H H -0.23812769701730135 -0.7941686577093588 -0.7855683248734916 0.0
C C -0.3447368969816634 -0.9344608790806995 -0.9793149537262388 0.0
H H -0.3183168969816633 -0.9018308790806997 -1.0134849537262387 0.0
C C -0.41927597561096863 -0.9423668150927152 -1.0372449356623537 0.0
H H -0.43815597561096853 -0.9154368150927151 -1.0978049356623536 0.0
C C -0.46665522844652474 -0.9946358625140554 -0.9905325414302192 0.0
C C -0.4236100292604408 -1.0301861753726003 -0.8821980693510664 0.0
H H -0.4493800292604406 -1.0623561753726 -0.8462580693510663 0.0
C C -0.36309638383880993 -1.009733708001399 -0.8495301780995729 0.0
H H -0.34287638383880986 -1.036103708001399 -0.7890901780995728 0.0
C C -0.16898186050579758 -0.8974565469337642 -0.9814568171110881 0.0
C C -0.12373946139867545 -0.8572634300306099 -1.0658496996352855 0.0
C C -0.08331662702574563 -0.7998216006591722 -1.0076988240277922 0.0
H H -0.08369662702574562 -0.785901600659172 -0.9366688240277923 0.0
C C -0.043323018323405904 -0.7572822699277345 -1.067849375605724 0.0
H H -0.0177030183234059 -0.7169622699277345 -1.037009375605724 0.0
C C -0.033119145588469644 -0.7863343008170517 -1.1808399773037102 0.0
C C -0.07179274313814646 -0.8444165877460095 -1.2183939633358418 0.0
H H -0.06897274313814648 -0.8594865877460094 -1.2881639633358422 0.0
C C -0.11024327097672232 -0.8785990642482241 -1.1544690514673968 0.0
C C -0.17124343863948402 -0.9318915698278203 -1.2141796502260733 0.0
C C 0.0025609693296892552 -0.7419205126717427 -1.2433432497182249 0.0
C C 0.05446828840434493 -0.6777377677431977 -1.175713607221128 0.0
F F 0.09387669666005437 -0.7156950106065121 -1.105929887528715 0.0
F F 0.020059019566194883 -0.6195856716214806 -1.136773782110464 0.0
F F 0.10234366719907033 -0.6528039470478663 -1.23858604346228 0.0
N N -0.2465498420486814 -0.875804708024161 -0.709217698072812 0.0
N N -0.3176247601894417 -0.9680238615377127 -0.8938816416835069 0.0
O O -0.17520713593349277 -0.9697983540119022 -1.017714335903017 0.0
O O -0.18332166247919507 -0.8795319034979762 -0.9138348312354814 0.0
O O -0.23660266325971638 -0.9245581746148008 -1.2302773891803573 0.0
O O -0.13559256430777644 -0.9854405071636901 -1.2576786270067957 0.0
Zn Zn -0.22093451018005297 -0.958703425618002 -0.8171658320293214 0.0
C C 0.2390845538884826 -0.9016138045667277 0.11268285296379009 0.0
H H 0.2379645538884826 -0.9521838045667277 0.09775285296379009 0.0
C C 0.23536214963265112 -0.8443807786615589 0.024416925127841663 0.0
H H 0.23664214963265115 -0.863050778661559 -0.044123074872158316 0.0
C C 0.25411483572412213 -0.7777306746414051 0.04353003825931243 0.0
C C 0.24698103380422826 -0.7599553183783697 0.14610385597381761 0.0
H H 0.24955103380422824 -0.7095253183783696 0.16286385597381758 0.0
C C 0.24952795034393244 -0.8156771756266566 0.23405494161951645 0.0
H H 0.2503079503439324 -0.7985571756266566 0.3038249416195164 0.0
C C 0.3497658823211103 -0.9284464956988562 0.4874787757129033 0.0
H H 0.3233458823211103 -0.8958164956988564 0.5216487757129034 0.0
C C 0.41840371748459293 -0.9540808404818372 0.516079262417115 0.0
H H 0.4372837174845928 -0.9271508404818372 0.5766392624171149 0.0
C C 0.47006098623749976 -0.9998136219545767 0.4953183299164513 0.0
C C 0.43563859482884143 -1.02994419522155 0.4010809319127313 0.0
H H 0.4614085948288414 -1.0621141952215498 0.3651409319127314 0.0
C C 0.36225767695450706 -1.0117654006099328 0.3518104267727258 0.0
H H 0.342037676954507 -1.0381354006099328 0.2913704267727257 0.0
C C 0.16891582269641936 -0.9025912997630713 0.49775002963213894 0.0
C C 0.12043161181466457 -0.8529617730533167 0.5489381961083224 0.0
C C 0.08287736295095303 -0.7939632783601296 0.5140308637576713 0.0
H H 0.08325736295095301 -0.7800432783601297 0.4430008637576712 0.0
C C 0.04327259607348254 -0.7502372831919668 0.5650247267436087 0.0
H H 0.01765259607348255 -0.7099172831919668 0.5341847267436087 0.0
C C 0.033039761696268426 -0.7685527814472078 0.6780368775324985 0.0
C C 0.07633314884206993 -0.8385576586563912 0.7077999188895726 0.0
H H 0.07351314884206994 -0.853627658656391 0.7775699188895728 0.0
C C 0.11341317848087477 -0.8816477150706361 0.6572775540816796 0.0
C C 0.1729794847311649 -0.9395922824987196 0.7238324396211882 0.0
C C 0.008228642490201749 -0.7381403490320214 0.7496975811148959 0.0
C C -0.060850494822793894 -0.6807418386878306 0.6737457020425702 0.0
F F -0.10273394973584034 -0.714239719993866 0.6121097656971571 0.0
F F -0.026633835120294616 -0.6267607706918547 0.6431055082727305 0.0
F F -0.09381101954553539 -0.6449712969799606 0.7499732481558784 0.0
N N 0.23343670818398907 -0.8676102100653982 0.21009795626919792 0.0
N N 0.32524773045576955 -0.9680305364591376 0.4082220851093018 0.0
O O 0.1742727458664248 -0.97240910565247 0.49502619626642425 0.0
O O 0.18425383397695977 -0.8708258180987951 0.42219048354322186 0.0
O O 0.22187036726081946 -0.9347189982854609 0.7182106887058394 0.0
O O 0.14336828555737244 -0.9761745852502335 0.762051283730324 0.0
Zn Zn 0.22800408885941292 -0.9522351427690157 0.3380669312022781 0.0
C C 0.2550800497501546 -0.39892641385240923 -0.6119883650486488 0.0
H H 0.2562000497501546 -0.4494964138524091 -0.5970583650486488 0.0
C C 0.26000496284108754 -0.34221429242344625 -0.5229267960418427 0.0
H H 0.25872496284108765 -0.3608842924234463 -0.4543867960418427 0.0
C C 0.2463340564239123 -0.2781936140277427 -0.5394664396035294 0.0
C C 0.2607017928949867 -0.2637908089123465 -0.6377858928091348 0.0
H H 0.2581317928949866 -0.2133608089123465 -0.6545458928091349 0.0
C C 0.26392910979236256 -0.30749387253096755 -0.7129945493312498 0.0
H H 0.26314910979236256 -0.2903738725309675 -0.7827645493312498 0.0
C C 0.15005245855128732 -0.43648104466070975 -0.9833555963324718 0.0
H H 0.1764724585512873 -0.4038510446607098 -1.0175255963324719 0.0
C C 0.07352340069030525 -0.4362076616815889 -1.0291940945788087 0.0
H H 0.05464340069030523 -0.4092776616815889 -1.0897540945788085 0.0
C C 0.03946797628464418 -0.4855075228712343 -0.9848679522508185 0.0
C C 0.07064240006906457 -0.534376280861988 -0.8871829644797713 0.0
H H 0.04487240006906457 -0.5665462808619878 -0.8512429644797712 0.0
C C 0.1280122675950144 -0.5183499364630704 -0.8571480640442029 0.0
H H 0.14823226759501446 -0.5447199364630704 -0.7967080640442028 0.0
C C 0.3439991282677221 -0.400200395358672 -0.9807362255988404 0.0
C C 0.36445166045629507 -0.3512242525362702 -1.0588559838954317 0.0
C C 0.4225025531459601 -0.3072594997870187 -1.004547780450131 0.0
H H 0.42212255314596 -0.2933394997870188 -0.933517780450131 0.0
C C 0.45910183952809464 -0.25935197030477014 -1.0778631892181223 0.0
H H 0.4847218395280946 -0.21903197030477015 -1.0470231892181225 0.0
C C 0.4719040620207703 -0.2843151723093292 -1.166572301711939 0.0
C C 0.4187441777977295 -0.34506548935280723 -1.2196374708726005 0.0
H H 0.4215641777977295 -0.36013548935280715 -1.2894074708726007 0.0
C C 0.3744725620590529 -0.36790946331972596 -1.1697770955302895 0.0
C C 0.33794287496226966 -0.4382304325671741 -1.2193543975824412 0.0
C C 0.5092900342815506 -0.23209615605191514 -1.2485891023077353 0.0
C C 0.5442835993154614 -0.174023803833969 -1.1985482845693742 0.0
F F 0.593041545653803 -0.2239785228014194 -1.097346773866401 0.0
F F 0.5314840656815973 -0.12405675500330883 -1.1219313977361047 0.0
F F 0.6015846517387264 -0.15825597731944105 -1.2488455933169529 0.0
N N 0.2557927162473253 -0.37467768944577445 -0.7152460054219377 0.0
N N 0.1717552589991016 -0.470351418784306 -0.8906003490649581 0.0
O O 0.32582752859303615 -0.47769465169422654 -1.008616000508919 0.0
O O 0.3123497765920861 -0.3676595239997503 -0.9338169500117973 0.0
O O 0.26655319383567766 -0.436785102313978 -1.2211089714429562 0.0
O O 0.3649159670915289 -0.48387612876731323 -1.25385469732934 0.0
Zn Zn 0.2829193392483198 -0.46053550740606314 -0.8184809183137796 0.0
C C 0.7331498738627757 -0.39125953069265584 0.10007856606018098 0.0
H H 0.7320298738627758 -0.4418295306926558 0.08514856606018098 0.0
C C 0.7380972399571232 -0.3532606089764569 0.03272733767221965 0.0
H H 0.7393772399571232 -0.37193060897645697 -0.03581266232778034 0.0
C C 0.751659472411723 -0.2731208649841629 0.05299826489108522 0.0
C C 0.7494750221817758 -0.2537896499802355 0.1363234738086356 0.0
H H 0.7520450221817757 -0.20335964998023554 0.1530834738086356 0.0
C C 0.7471033808635897 -0.3004411349200585 0.2311255333251076 0.0
H H 0.7478833808635896 -0.2833211349200584 0.30089553332510754 0.0
C C 0.8517189584385634 -0.44103638196508543 0.48551449744654385 0.0
H H 0.8252989584385632 -0.40840638196508544 0.5196844974465439 0.0
C C 0.9267868810340132 -0.44424060030467033 0.521812018700552 0.0
H H 0.9456668810340131 -0.4173106003046704 0.582372018700552 0.0
C C 0.9693032144496677 -0.49547719087931497 0.4817145380227228 0.0
C C 0.9302387052341486 -0.5266648929435043 0.3777044750627386 0.0
H H 0.9560087052341489 -0.5588348929435041 0.34176447506273866 0.0
C C 0.8623731979212729 -0.5165263157009252 0.3627289087153936 0.0
H H 0.842153197921273 -0.5428963157009252 0.30228890871539355 0.0
C C 0.6596022801008975 -0.41107344108553995 0.48699184094703574 0.0
C C 0.6265361920860005 -0.35572671091472324 0.5705044912770911 0.0
C C 0.585088634242577 -0.3049836651296044 0.5163717404496512 0.0
H H 0.5854686342425768 -0.2910636651296045 0.4453417404496511 0.0
C C 0.5449969430080832 -0.26433898460141053 0.5826066597350025 0.0
H H 0.5193769430080832 -0.22401898460141054 0.5517666597350024 0.0
C C 0.5380819693628303 -0.28189508186427914 0.6782471424612739 0.0
C C 0.5857603792526836 -0.34578893989634046 0.7276831848286645 0.0
H H 0.5829403792526837 -0.3608589398963404 0.7974531848286646 0.0
C C 0.616632316915798 -0.3800121722539076 0.6698126297132244 0.0
C C 0.6744752639642586 -0.43430510926338056 0.7248437261997495 0.0
C C 0.49766522500685556 -0.22013895107008255 0.7450118875583355 0.0
C C 0.44938630552733033 -0.18417988295332746 0.6835708954165006 0.0
F F 0.40402976359896564 -0.22513605864813585 0.6142537660015946 0.0
F F 0.46950555462245314 -0.12536967724013784 0.6396451554865538 0.0
F F 0.4097973984979183 -0.15424618157973877 0.7634160760550955 0.0
N N 0.7334993548642286 -0.380804799656799 0.20412687168056107 0.0
N N 0.8254253172348089 -0.46864853188566336 0.38593311909959505 0.0
O O 0.6751420942659208 -0.4724041962506714 0.5062724435380537 0.0
O O 0.6805494693381066 -0.36678639965161924 0.416588220911985 0.0
O O 0.7385624433175195 -0.44244097404957994 0.7205929039876257 0.0
O O 0.6351023637226323 -0.4829548312685881 0.7507673411588897 0.0
Zn Zn 0.7278625688066751 -0.4568019753676514 0.34255946797096243 0.0
_cell_length_a 19.5206
_cell_length_b 17.9856
_cell_length_c 12.6054
_cell_angle_alpha 90.0
_cell_angle_beta 99.0355
_cell_angle_gamma 90.0
_symmetry_space_group_name_H-M         'P 1'
_symmetry_Int_Tables_number            1
loop_
_symmetry_equiv_pos_as_xyz
   'x, y, z'
                         
loop_
_atom_site_label
_atom_site_type_symbol
_atom_site_fract_x 
_atom_site_fract_y
_atom_site_fract_z
_atom_site_charge
C C 0.2428259216943086 0.9023798748289509 0.6092218540154437 0.0
H H 0.24170592169430857 0.9529498748289508 0.5942918540154436 0.0
C C 0.2538309079524569 0.8484014138761927 0.5261840415079079 0.0
H H 0.2551109079524569 0.8670714138761929 0.45764404150790783 0.0
C C 0.24965481314324875 0.7674160372466079 0.5548459941616376 0.0
C C 0.247976083411031 0.7473919802971349 0.6426624349189486 0.0
H H 0.250546083411031 0.696961980297135 0.6594224349189486 0.0
C C 0.24650401036861605 0.7970365129784094 0.7282971524652136 0.0
H H 0.247284010368616 0.7799165129784094 0.7980671524652136 0.0
C C 0.36053210845379974 0.9384029436159124 0.9841623116984027 0.0
H H 0.33411210845379974 0.9057729436159124 1.0183323116984027 0.0
C C 0.41970638884402045 0.9426500280875422 1.0372334099905602 0.0
H H 0.4385863888440204 0.915720028087542 1.0977934099905602 0.0
C C 0.45678927434045485 0.9969863860105954 0.9846794274737778 0.0
C C 0.43108991694828336 1.0283155553367977 0.8764167542667498 0.0
H H 0.45685991694828326 1.0604855553367976 0.8404767542667497 0.0
C C 0.3593073486529493 1.0186951855942643 0.8567830384850296 0.0
H H 0.33908734865294915 1.0450651855942645 0.7963430384850294 0.0
C C 0.17206789904172098 0.9047548548126517 0.9865240381652419 0.0
C C 0.13258467782889566 0.8531941728588379 1.0606982540038512 0.0
C C 0.0939650572931783 0.791311772490329 1.024561758155864 0.0
H H 0.0943450572931783 0.777391772490329 0.953531758155864 0.0
C C 0.03806996121131046 0.7656872114557196 1.062191510432824 0.0
H H 0.012449961211310468 0.7253672114557196 1.031351510432824 0.0
C C 0.04895276153030605 0.7718980132297514 1.1890293544085622 0.0
C C 0.07346785372261394 0.8319116500613541 1.210144409742053 0.0
H H 0.07064785372261397 0.8469816500613541 1.2799144097420534 0.0
C C 0.11396787127536447 0.8788386324551914 1.1584861131413022 0.0
C C 0.1653747306310326 0.9263529360000337 1.2110950271013032 0.0
C C -0.000398355663569815 0.737713501040137 1.2483658659351506 0.0
C C -0.05329657101769476 0.6830320531082721 1.1820134272299005 0.0
F F -0.09820575341404354 0.7145767108740648 1.0988829018590445 0.0
F F -0.021945021996150907 0.6244367821560982 1.1501640527393175 0.0
F F -0.09056334863011002 0.6487560813402279 1.2612729015027737 0.0
N N 0.2318077272529166 0.8742328772316715 0.6988086700891316 0.0
N N 0.32178296225711467 0.973513730529446 0.9094413858123584 0.0
O O 0.180685441149952 0.9716195230053436 1.0006271150601393 0.0
O O 0.18697682229024348 0.8771996706185101 0.919650179248992 0.0
O O 0.23161891941584645 0.9293112546796874 1.2175334398721114 0.0
O O 0.14635950772907513 0.9751592388197964 1.2720691619145987 0.0
Zn Zn 0.2239374386062006 0.9552832887907112 0.8204968464400259 0.0
C C -0.24381708870728955 0.9090739358149267 -0.11479356751904889 0.0
H H -0.24269708870728954 0.9596439358149267 -0.0998635675190489 0.0
C C -0.24268334115690415 0.8527913850839678 -0.015521339867880997 0.0
H H -0.24396334115690418 0.871461385083968 0.05301866013211899 0.0
C C -0.24603937497921985 0.781086813774702 -0.03353215122506285 0.0
C C -0.23915273465303358 0.7538694220851749 -0.13716003423727047 0.0
H H -0.24172273465303354 0.7034394220851748 -0.15392003423727044 0.0
C C -0.23619011794276212 0.8044174392257253 -0.23214019394969296 0.0
H H -0.2369701179427621 0.7872974392257253 -0.30191019394969293 0.0
C C -0.34617185891323293 0.9281091686779903 -0.4788261435499261 0.0
H H -0.3197518589132329 0.8954791686779904 -0.5129961435499262 0.0
C C -0.4241530267693519 0.9436633317633957 -0.5364403011804869 0.0
H H -0.44303302676935186 0.9167333317633956 -0.5970003011804869 0.0
C C -0.4587807490355995 0.9944694639763131 -0.4892847072965992 0.0
C C -0.4234540606002641 1.0292241895695504 -0.3723839906678389 0.0
H H -0.449224060600264 1.0613941895695502 -0.336443990667839 0.0
C C -0.37212696511467797 1.028072592112901 -0.35872589007030636 0.0
H H -0.35190696511467795 1.054442592112901 -0.2982858900703063 0.0
C C -0.1689321089973678 0.8960832963555682 -0.4873232493561302 0.0
C C -0.11788311713686908 0.8540245658874767 -0.5597213971243552 0.0
C C -0.09009146359891941 0.7951396424394843 -0.5191926641429807 0.0
H H -0.09047146359891939 0.7812196424394844 -0.44816266414298067 0.0
C C -0.04616446099718863 0.7554045974783774 -0.5734718173129132 0.0
H H -0.02054446099718863 0.7150845974783773 -0.5426318173129132 0.0
C C -0.04240939451474153 0.7830165470875774 -0.6877726137699076 0.0
C C -0.07769314150393013 0.8412056194344041 -0.7114067896269743 0.0
H H -0.07487314150393014 0.856275619434404 -0.7811767896269745 0.0
C C -0.11399380643969802 0.8679840332123879 -0.6493731551919353 0.0
C C -0.17189296485283717 0.9419385580234502 -0.7261135437323939 0.0
C C 0.010125626260281354 0.7264593923605354 -0.7383776212020888 0.0
C C 0.05958082527377323 0.6823369888034194 -0.6720091442704845 0.0
F F 0.09450700359112074 0.7175775641208223 -0.5960364979704209 0.0
F F 0.025291817280074416 0.6265952775979967 -0.6502904520457887 0.0
F F 0.09480291832520024 0.6427802972053049 -0.7420938677426597 0.0
N N -0.23277632996234696 0.8744116349623733 -0.19360340517734725 0.0
N N -0.32475931998234653 0.968872860505196 -0.3931189355487377 0.0
O O -0.1665076676163488 0.9664466450293614 -0.485623038307724 0.0
O O -0.183891155024642 0.8611747479178935 -0.4206536114455539 0.0
O O -0.22598555509253881 0.9295544982203687 -0.7098357160388693 0.0
O O -0.13550412128281258 0.9758738534497009 -0.7574075528727252 0.0
Zn Zn -0.2229287877689668 0.9459005941834442 -0.33977887242702526 0.0
C C 0.7333407446512211 1.398983595848732 0.6100518572197273 0.0
H H 0.7322207446512211 1.449553595848732 0.5951218572197273 0.0
C C 0.7382117254016167 1.3589451179789402 0.5207562796857432 0.0
H H 0.7394917254016167 1.37761511797894 0.45221627968574324 0.0
C C 0.7556389224870509 1.2776448358848214 0.5530175246891265 0.0
C C 0.743254117717381 1.2527036602848944 0.6527917654999819 0.0
H H 0.7458241177173808 1.2022736602848945 0.6695517654999819 0.0
C C 0.7377342641623666 1.2975931875880609 0.7296839265346408 0.0
H H 0.7385142641623665 1.2804731875880606 0.7994539265346408 0.0
C C 0.8486211327433327 1.431127386651725 0.98131452723519 0.0
H H 0.8222011327433326 1.398497386651725 1.01548452723519 0.0
C C 0.9232962948809149 1.4422855046127567 1.0219615694538164 0.0
H H 0.9421762948809149 1.4153555046127568 1.0825215694538164 0.0
C C 0.9594019293097864 1.5032876090145069 0.9730080761691485 0.0
C C 0.9383836232478817 1.5258858792279109 0.8942686890106739 0.0
H H 0.9641536232478818 1.558055879227911 0.8583286890106738 0.0
C C 0.860490331749622 1.517415102110701 0.8526496196348802 0.0
H H 0.840270331749622 1.543785102110701 0.79220961963488 0.0
C C 0.6628423138924013 1.3972563540679614 0.9812289956582816 0.0
C C 0.6287153983814787 1.349205321731138 1.062279624818579 0.0
C C 0.577519454211922 1.3058970291979297 1.0174875235859984 0.0
H H 0.5778994542119219 1.29197702919793 0.9464575235859984 0.0
C C 0.5477673285131384 1.2662429816228067 1.0767767615541637 0.0
H H 0.5221473285131385 1.2259229816228068 1.0459367615541637 0.0
C C 0.5363633825046873 1.26885924224815 1.1744632706639044 0.0
C C 0.5822581505891962 1.3362955631158429 1.2205598106721125 0.0
H H 0.5794381505891961 1.3513655631158428 1.2903298106721126 0.0
C C 0.6277176521489842 1.371489922375825 1.163799234670475 0.0
C C 0.6708095892948494 1.4387213919146074 1.2249276152729798 0.0
C C 0.5037773177492373 1.223572869310764 1.2525201793072382 0.0
C C 0.43841118744702146 1.17820010556224 1.1907311129066014 0.0
F F 0.40818036469472996 1.2170384315152125 1.0974637989381133 0.0
F F 0.47225253673794954 1.1213079456204946 1.128110961091187 0.0
F F 0.4090633434705006 1.1427903819205625 1.2462378163457357 0.0
N N 0.7353205439370974 1.387503370366604 0.7024383718113847 0.0
N N 0.8206272088942861 1.4775755401882722 0.893910223878253 0.0
O O 0.6675835524837067 1.4789093702005414 0.99716670570206 0.0
O O 0.6983387437305543 1.368984802449092 0.9366168101396127 0.0
O O 0.730024162205492 1.4334241071413525 1.2097302797445095 0.0
O O 0.6389286001807457 1.4967855847908291 1.2579676531090254 0.0
Zn Zn 0.7259303820213482 1.4467891538894233 0.8289983383542213 0.0
C C 0.2511295890821025 1.4032168013456963 -0.12056825949597508 0.0
H H 0.25224958908210243 1.4537868013456963 -0.10563825949597508 0.0
C C 0.26450388617839454 1.3517644880253863 -0.019176709555754016 0.0
H H 0.26322388617839465 1.3704344880253863 0.049363290444245964 0.0
C C 0.25941334080214296 1.2720345115800944 -0.048045893799965725 0.0
C C 0.24851132156022226 1.250926720326726 -0.1390000888307961 0.0
H H 0.24594132156022225 1.2004967203267263 -0.1557600888307961 0.0
C C 0.26202574830191744 1.3102544656381871 -0.21675396432540206 0.0
H H 0.2612457483019174 1.293134465638187 -0.286523964325402 0.0
C C 0.15638086234788193 1.4301770849348558 -0.47154818747647526 0.0
H H 0.18280086234788193 1.3975470849348557 -0.5057181874764753 0.0
C C 0.07507566827598658 1.4454586117075665 -0.5402535432437974 0.0
H H 0.05619566827598655 1.4185286117075668 -0.6008135432437973 0.0
C C 0.04161189039647276 1.4838387590772244 -0.4816473833849164 0.0
C C 0.062377567587213745 1.525259610232314 -0.3856584128580439 0.0
H H 0.036607567587213743 1.557429610232314 -0.349718412858044 0.0
C C 0.13314280263074527 1.5213601586159144 -0.36348247086711927 0.0
H H 0.15336280263074525 1.5477301586159145 -0.3030424708671192 0.0
C C 0.3416557042508315 1.4104078978720809 -0.4812529329753876 0.0
C C 0.3711171535181494 1.3595736987061406 -0.5698722886823829 0.0
C C 0.4190279664809346 1.2954958042627505 -0.5188839388637962 0.0
H H 0.41864796648093455 1.2815758042627508 -0.44785393886379615 0.0
C C 0.45489041129550756 1.2639885784976954 -0.5644251515525951 0.0
H H 0.48051041129550753 1.2236685784976955 -0.5335851515525951 0.0
C C 0.45998085268413214 1.2783338200511432 -0.6721883072127569 0.0
C C 0.4115455892868965 1.3425088570823476 -0.7290849544245683 0.0
H H 0.4143655892868964 1.3575788570823475 -0.7988549544245684 0.0
C C 0.3827227829428257 1.3795086896189779 -0.6588792131223938 0.0
C C 0.3272597335159004 1.441704039748797 -0.72959873536756 0.0
C C 0.5099992081915431 1.2277456691225914 -0.7384269860961422 0.0
C C 0.5463522924618354 1.1781947335080105 -0.6881134986564231 0.0
F F 0.6013454874390457 1.21040009534073 -0.6082397649231535 0.0
F F 0.5368328507508077 1.1186780747593932 -0.6318369962006729 0.0
F F 0.5991223600431207 1.156542732440518 -0.756515643719416 0.0
N N 0.27425906189223076 1.3741299312707638 -0.19612807027213375 0.0
N N 0.17988368905365074 1.4742280823206082 -0.3967100845352554 0.0
O O 0.32227157947729684 1.4817354366597488 -0.5100130110609725 0.0
O O 0.3071616427343964 1.3608765107111611 -0.4149876398180429 0.0
O O 0.27919954473776526 1.4322360955109894 -0.7036328424033903 0.0
O O 0.3598999884809132 1.4767904989466047 -0.7581558164404226 0.0
Zn Zn 0.28426809356279936 1.4459906103782882 -0.326142634206741 0.0
C C -0.24269646548158075 -0.8918057049242613 -0.6202864414865928 0.0
H H -0.24157646548158074 -0.9423757049242613 -0.6053564414865928 0.0
C C -0.25213501626680995 -0.8429187971718723 -0.5394133563032222 0.0
H H -0.25341501626681 -0.8615887971718725 -0.47087335630322213 0.0
C C -0.24598791914255524 -0.773788729109627 -0.5304484261211141 0.0
C C -0.24579236140261343 -0.7504763073191214 -0.6564351502698048 0.0
H H -0.24836236140261345 -0.7000463073191213 -0.6731951502698048 0.0
C C -0.2424764100054562 -0.8071770418893942 -0.7278855516370286 0.0
H H -0.24325641000545617 -0.7900570418893942 -0.7976555516370286 0.0
C C -0.34510369658389345 -0.9461660252461627 -0.9696516442085359 0.0
H H -0.31868369658389345 -0.9135360252461628 -1.003821644208536 0.0
C C -0.41684092318255495 -0.9483540850387034 -1.0168318740723472 0.0
H H -0.43572092318255484 -0.9214240850387034 -1.077391874072347 0.0
C C -0.45245006657430364 -1.0010457008967217 -0.9787791688833047 0.0
C C -0.42582488912106686 -1.032715343411524 -0.8908896430064883 0.0
H H -0.45159488912106677 -1.0648853434115237 -0.8549496430064882 0.0
C C -0.36837032431225175 -1.0113299952765018 -0.8621393059260049 0.0
H H -0.3481503243122517 -1.037699995276502 -0.8016993059260047 0.0
C C -0.17242294607334774 -0.9023905131138261 -0.9823756171977462 0.0
C C -0.13496151678096246 -0.8568434190903725 -1.063339155094086 0.0
C C -0.07775741954765729 -0.7969234355460354 -1.0188653432194563 0.0
H H -0.07813741954765728 -0.7830034355460354 -0.9478353432194564 0.0
C C -0.04686693071649885 -0.7483882874937552 -1.0759799678741166 0.0
H H -0.021246930716498844 -0.708068287493755 -1.045139967874117 0.0
C C -0.03977951877531224 -0.7738702005176354 -1.187890171243298 0.0
C C -0.08000021019685098 -0.8414605587698106 -1.2101481262405964 0.0
H H -0.07718021019685102 -0.8565305587698105 -1.2799181262405968 0.0
C C -0.1277977409840591 -0.8750753901499645 -1.1551251849992525 0.0
C C -0.1602354973605507 -0.9462029200856181 -1.2154588678498146 0.0
C C -0.0015717998173759686 -0.7289971598793131 -1.2500888868124918 0.0
C C 0.050448163430849284 -0.6812387799991549 -1.1898024186454537 0.0
F F 0.09812725774620579 -0.7128029943953411 -1.1137664593372087 0.0
F F 0.03555368246998621 -0.6308871932956903 -1.138361295235929 0.0
F F 0.10444828814570219 -0.6542577755806489 -1.2385084192857454 0.0
N N -0.23409228061816448 -0.8767704178423302 -0.6972616601036415 0.0
N N -0.32693035122800923 -0.9699479668108945 -0.8877370836765374 0.0
O O -0.16643973792615527 -0.9687788061103214 -0.9885118179527111 0.0
O O -0.18037458042597335 -0.875359508556342 -0.9118614220082939 0.0
O O -0.22508091754271004 -0.937902818624076 -1.225418220151192 0.0
O O -0.14637929854881734 -0.9814171008084809 -1.2654040195933498 0.0
Zn Zn -0.22887226179678896 -0.9470765035296392 -0.8366750534505544 0.0
C C 0.23416293736906024 -0.8891622501788599 0.10591342443284044 0.0
H H 0.23304293736906023 -0.9397322501788598 0.09098342443284045 0.0
C C 0.24761995981026239 -0.8433205835028545 0.020229192631143894 0.0
H H 0.24889995981026242 -0.8619905835028546 -0.048310807368856096 0.0
C C 0.2524915977879717 -0.7696329616757834 0.04709543453253065 0.0
C C 0.2397111074577179 -0.7513613391840878 0.1433353665552517 0.0
H H 0.24228110745771783 -0.7009313391840877 0.1600953665552517 0.0
C C 0.24415260227056373 -0.8024934641273221 0.2293157278109586 0.0
H H 0.2449326022705637 -0.7853734641273221 0.2990857278109586 0.0
C C 0.3534937242758521 -0.9388795715196122 0.49568749613833013 0.0
H H 0.327073724275852 -0.9062495715196124 0.5298574961383302 0.0
C C 0.41933025748294755 -0.9556276547377882 0.5207679946491939 0.0
H H 0.4382102574829475 -0.9286976547377881 0.5813279946491938 0.0
C C 0.4579807074905983 -0.9957919359312376 0.47664083021617026 0.0
C C 0.4324643899841183 -1.0417663057167994 0.39301769228637845 0.0
H H 0.45823438998411814 -1.0739363057167992 0.3570776922863785 0.0
C C 0.3682007362493343 -1.018513441753951 0.3523354767643884 0.0
H H 0.34798073624933423 -1.044883441753951 0.2918954767643884 0.0
C C 0.16701644825772988 -0.9148148093717011 0.4902233751929205 0.0
C C 0.12725547234364504 -0.8590205482415401 0.5455462378659302 0.0
C C 0.0825969561407978 -0.7882562717130208 0.5079364631979995 0.0
H H 0.08297695614079778 -0.7743362717130209 0.43690646319799936 0.0
C C 0.04522763951333805 -0.7559380371823241 0.5676125354732598 0.0
H H 0.019607639513338056 -0.7156180371823241 0.5367725354732599 0.0
C C 0.027731863879344378 -0.7764782688603444 0.6723421828909563 0.0
C C 0.07891044606285184 -0.8436450525807948 0.7328024179101205 0.0
H H 0.07609044606285187 -0.8587150525807947 0.8025724179101206 0.0
C C 0.12037030418109902 -0.8791407354142454 0.6636144119273087 0.0
C C 0.16431068234915572 -0.931721267463483 0.7130657516486354 0.0
C C 0.006211397407927311 -0.7370100815889566 0.752388458380766 0.0
C C -0.05302914897846864 -0.6716947635891347 0.6921415673309037 0.0
F F -0.10225656434497699 -0.7112624662145617 0.6129280686833732 0.0
F F -0.01810863603691877 -0.6344963181763846 0.642106136273602 0.0
F F -0.09735470127962477 -0.6503759243122743 0.7528877003105663 0.0
N N 0.23223444907454652 -0.875157996339761 0.2108678764555568 0.0
N N 0.3231755793278082 -0.9717966879808279 0.4050420706125677 0.0
O O 0.1626109701579166 -0.9710112937353703 0.5019542701002663 0.0
O O 0.18483308194719894 -0.8737907835394062 0.4144064808241475 0.0
O O 0.22241653737049735 -0.9295219613494881 0.707078515015141 0.0
O O 0.1470447989788641 -0.9837613712729716 0.7622415755805448 0.0
Zn Zn 0.22627930545328986 -0.948975210743585 0.34309839795577024 0.0
C C 0.26824432482555827 -0.3988227030684813 -0.6082426855975391 0.0
H H 0.26936432482555817 -0.4493927030684811 -0.5933126855975391 0.0
C C 0.25191249137270905 -0.34137870475906246 -0.5255739784383824 0.0
H H 0.25063249137270915 -0.36004870475906253 -0.4570339784383824 0.0
C C 0.2525804656000649 -0.2757940999870248 -0.5530799219423287 0.0
C C 0.2526965667338823 -0.24815841153406876 -0.6409124212800342 0.0
H H 0.2501265667338823 -0.19772841153406875 -0.6576724212800342 0.0
C C 0.2602961645849917 -0.3036475491142332 -0.7260604290173714 0.0
H H 0.25951616458499177 -0.28652754911423317 -0.7958304290173714 0.0
C C 0.15151441158414347 -0.43993870886650477 -0.979493995504249 0.0
H H 0.1779344115841435 -0.40730870886650483 -1.013663995504249 0.0
C C 0.08178577071946257 -0.44810059960484055 -1.0114139051990672 0.0
H H 0.06290577071946257 -0.42117059960484055 -1.071973905199067 0.0
C C 0.02980077460334508 -0.4990002940128817 -0.9883307843859327 0.0
C C 0.07100589587492227 -0.5311146729556354 -0.8781492352941549 0.0
H H 0.04523589587492227 -0.5632846729556351 -0.8422092352941548 0.0
C C 0.13614242652927883 -0.5184089519624505 -0.84610805989374 0.0
H H 0.15636242652927884 -0.5447789519624504 -0.78566805989374 0.0
C C 0.3375009806837739 -0.4055416408406565 -0.981669701822995 0.0
C C 0.3727539090690431 -0.3498124802501722 -1.0620933223684057 0.0
C C 0.42042321465852417 -0.29238294427830536 -1.0107325236893439 0.0
H H 0.4200432146585241 -0.2784629442783054 -0.9397025236893438 0.0
C C 0.4518521297686045 -0.2547671253556544 -1.0862835751781763 0.0
H H 0.4774721297686045 -0.2144471253556544 -1.0554435751781763 0.0
C C 0.4656105143629148 -0.2768948556183397 -1.175859278991845 0.0
C C 0.42212085229960944 -0.33843358756665237 -1.2188780843992275 0.0
H H 0.4249408522996094 -0.3535035875666523 -1.2886480843992278 0.0
C C 0.370835336136174 -0.375518826759621 -1.1694286380101024 0.0
C C 0.34149230338336406 -0.4397037676866312 -1.2010886993150016 0.0
C C 0.4972202398704507 -0.2234584400889303 -1.247175043848357 0.0
C C 0.5536518035195487 -0.18784152425688846 -1.1966346917793298 0.0
F F 0.5911906687321148 -0.21352395476079086 -1.1130840349355193 0.0
F F 0.5325627694855152 -0.1349946201971557 -1.1342115384036295 0.0
F F 0.6021860239264639 -0.16130169181692547 -1.2442182615426889 0.0
N N 0.2647623616294728 -0.3851433285866548 -0.7092091147978269 0.0
N N 0.1716332059192368 -0.46471065920501403 -0.9101952567269791 0.0
O O 0.32049633956753415 -0.4686278927435663 -0.9985384360801239 0.0
O O 0.30496562047930853 -0.37464883205684435 -0.9209114125943905 0.0
O O 0.2697615899389008 -0.4329872998249058 -1.2239013219999078 0.0
O O 0.35156751625175925 -0.4822888973590646 -1.2590452212285201 0.0
Zn Zn 0.27108539090619715 -0.4449689382707438 -0.8440047279748562 0.0
C C 0.7345802989467136 -0.3926634155276443 0.10005216424720809 0.0
H H 0.7334602989467137 -0.4432334155276442 0.08512216424720809 0.0
C C 0.7348312580043569 -0.3479722933672121 0.0207247246656822 0.0
H H 0.7361112580043568 -0.36664229336721216 -0.047815275334317786 0.0
C C 0.7543230453862666 -0.27397461246335825 0.051555671890358985 0.0
C C 0.7496962064502533 -0.2650746215796624 0.14797277515706503 0.0
H H 0.7522662064502532 -0.2146446215796624 0.16473277515706503 0.0
C C 0.7419732824569474 -0.3111782100286377 0.23031131462793028 0.0
H H 0.7427532824569474 -0.2940582100286377 0.30008131462793025 0.0
C C 0.8447224976859533 -0.4356178468806524 0.47335374120387685 0.0
H H 0.8183024976859533 -0.4029878468806524 0.5075237412038769 0.0
C C 0.918598357449585 -0.4435665325049341 0.5313585058275888 0.0
H H 0.937478357449585 -0.41663653250493415 0.5919185058275888 0.0
C C 0.9670530448789679 -0.5008764093955788 0.47231005989188035 0.0
C C 0.9379518957244655 -0.5358329824629519 0.3863074052604455 0.0
H H 0.9637218957244655 -0.5680029824629516 0.3503674052604455 0.0
C C 0.8657068196558946 -0.5264174527797726 0.34101797974912335 0.0
H H 0.8454868196558946 -0.5527874527797726 0.2805779797491233 0.0
C C 0.6594261992525002 -0.4047250002736842 0.47340053584224423 0.0
C C 0.6235658550352834 -0.35391117138130296 0.5458354851843403 0.0
C C 0.581582115485548 -0.29391718197195466 0.515491439428956 0.0
H H 0.5819621154855478 -0.2799971819719547 0.44446143942895594 0.0
C C 0.5372897474649794 -0.25720674646023894 0.561629569028679 0.0
H H 0.5116697474649794 -0.21688674646023895 0.530789569028679 0.0
C C 0.5419112619982263 -0.276416811724075 0.6870254474507679 0.0
C C 0.5733324248470053 -0.341369601625036 0.7200729696244343 0.0
H H 0.5705124248470055 -0.3564396016250359 0.7898429696244345 0.0
C C 0.6251331391212464 -0.38291809766609775 0.6531427051329683 0.0
C C 0.6648169269199762 -0.4347668905165543 0.7174850325007833 0.0
C C 0.5084301945987276 -0.23472505679151906 0.7583293575009323 0.0
C C 0.44833277948556527 -0.17998098545277838 0.6857107349790508 0.0
F F 0.41210255506917004 -0.2208983213863866 0.6060641416100673 0.0
F F 0.4766791365749369 -0.13417646498998295 0.642370997709849 0.0
F F 0.3968595261214563 -0.14878565823139178 0.741441172075651 0.0
N N 0.7308935114910651 -0.37015564125579276 0.2147967593569692 0.0
N N 0.8247476852087002 -0.47394663660284186 0.39594036391615745 0.0
O O 0.6649627808706309 -0.4682004357942048 0.4908552626949258 0.0
O O 0.6881487415242975 -0.3730656010634086 0.4110614322250605 0.0
O O 0.719741817338837 -0.42759096968850285 0.7133585768797505 0.0
O O 0.6384079200989191 -0.47365886418536585 0.7577602632234159 0.0
Zn Zn 0.713679090405775 -0.4440440171765008 0.32490174963011204 0.0
