_cell_length_a 19.5206
_cell_length_b 17.9856
_cell_length_c 12.6054
_cell_angle_alpha 90.0
_cell_angle_beta 99.0355
_cell_angle_gamma 90.0
_symmetry_space_group_name_H-M         'P 1'
_symmetry_Int_Tables_number            1
loop_
_symmetry_equiv_pos_as_xyz
   'x, y, z'
                         
loop_
_atom_site_label
_atom_site_type_symbol
_atom_site_fract_x 
_atom_site_fract_y
_atom_site_fract_z
_atom_site_charge
C C 0.23621025164324289 0.8915477525639154 0.6078673921230258 0.0
H H 0.23509025164324288 0.9421177525639154 0.5929373921230258 0.0
C C 0.24951112337876188 0.8561863890765088 0.5356348142732396 0.0
H H 0.25079112337876186 0.874856389076509 0.4670948142732396 0.0
C C 0.24513787142944732 0.7844241375744461 0.5436346748848778 0.0
C C 0.2402905584550314 0.7552163852525879 0.6419328281105577 0.0
H H 0.2428605584550314 0.7047863852525879 0.6586928281105577 0.0
C C 0.24747135047166077 0.8126839745894793 0.7398425175060338 0.0
H H 0.24825135047166072 0.7955639745894793 0.8096125175060338 0.0
C C 0.3584284935916637 0.940043678925593 0.9904635973529746 0.0
H H 0.3320084935916637 0.9074136789255932 1.0246335973529745 0.0
C C 0.4279453804630432 0.9515540410533408 1.0319690335303593 0.0
H H 0.44682538046304315 0.9246240410533408 1.0925290335303592 0.0
C C 0.45964573324864516 0.9901835207658298 0.9813686629328376 0.0
C C 0.43033909078575355 1.0246691930995107 0.8799252658786962 0.0
H H 0.45610909078575346 1.0568391930995105 0.8439852658786962 0.0
C C 0.36490655172460756 1.0249070532265956 0.8453613460969256 0.0
H H 0.3446865517246075 1.0512770532265956 0.7849213460969255 0.0
C C 0.1554897886136383 0.8999677442541977 0.9842671229317028 0.0
C C 0.13066870473444767 0.8564739487545455 1.0643692320055693 0.0
C C 0.09011104304708004 0.8065833725142484 1.0130129619824544 0.0
H H 0.09049104304708003 0.7926633725142483 0.9419829619824543 0.0
C C 0.04143489723415889 0.7639538999650642 1.0666551372554485 0.0
H H 0.015814897234158888 0.7236338999650642 1.0358151372554487 0.0
C C 0.03314504051851254 0.7735369636785377 1.187054222236405 0.0
C C 0.08130662762938866 0.8370301502337769 1.207727246336664 0.0
H H 0.07848662762938868 0.8521001502337768 1.2774972463366643 0.0
C C 0.12247722916364001 0.8819386999358136 1.1588660733069283 0.0
C C 0.17733965678696648 0.9398910083333989 1.2234516966208895 0.0
C C -0.00019814229133043225 0.7289896863183073 1.2557395914584923 0.0
C C -0.05417135028988025 0.6841755507048172 1.1746378096872478 0.0
F F -0.09146021520794995 0.7187727850752667 1.124566494476959 0.0
F F -0.03441802853442285 0.6228291252919145 1.132193951103103 0.0
F F -0.09365896162872031 0.64373052535679 1.2371844722741268 0.0
N N 0.23934133659572357 0.8776397033906386 0.7204847708044053 0.0
N N 0.32087367453953686 0.9638635697449995 0.901937394953238 0.0
O O 0.16443623878169544 0.9687472913260423 1.0022052594077107 0.0
O O 0.181621907716079 0.8703315438920954 0.9189222622422685 0.0
O O 0.2229444738507467 0.9312781946234574 1.2064741624527868 0.0
O O 0.13662235524090244 0.9792885402824364 1.246807942274607 0.0
Zn Zn 0.2238348135258772 0.9572483689144679 0.821477751104392 0.0
C C -0.23873671480986525 0.8953132508977407 -0.12488741052571198 0.0
H H -0.23761671480986524 0.9458832508977407 -0.10995741052571198 0.0
C C -0.24769308419714586 0.847311905234046 -0.03712644148331155 0.0
H H -0.24897308419714584 0.8659819052340461 0.031413558516688436 0.0
C C -0.2469803823113276 0.7809876485498133 -0.04293194329346558 0.0
C C -0.24288994255112875 0.7493343368680296 -0.14943319922715304 0.0
H H -0.2454599425511287 0.6989043368680296 -0.16619319922715306 0.0
C C -0.24122094614281053 0.8031102782402699 -0.22026153148998576 0.0
H H -0.24200094614281048 0.7859902782402699 -0.2900315314899857 0.0
C C -0.35741336614417946 0.9278081812716612 -0.4800684633326092 0.0
H H -0.3309933661441794 0.8951781812716614 -0.5142384633326093 0.0
C C -0.42225517673588037 0.9450420871188984 -0.5207997715832273 0.0
H H -0.4411351767358803 0.9181120871188984 -0.5813597715832273 0.0
C C -0.4589984516228283 0.9944559258873251 -0.47235901705980887 0.0
C C -0.43123899086080103 1.040994880802635 -0.3867696439849909 0.0
H H -0.45700899086080093 1.0731648808026348 -0.35082964398499095 0.0
C C -0.36706415413461635 1.0266917231794463 -0.3510955038077637 0.0
H H -0.3468441541346163 1.0530617231794466 -0.29065550380776367 0.0
C C -0.16775221224907902 0.8972796286387346 -0.48443654496123 0.0
C C -0.11895890339157057 0.8648518397938608 -0.5533475394459092 0.0
C C -0.0885809257830933 0.8003113488775841 -0.5162038855171986 0.0
H H -0.08896092578309327 0.7863913488775842 -0.4451738855171986 0.0
C C -0.037445643733544615 0.7613977283825771 -0.5790491505546608 0.0
H H -0.011825643733544626 0.7210777283825771 -0.5482091505546608 0.0
C C -0.041707898501673724 0.768046963190686 -0.6885758522583229 0.0
C C -0.08189922986853415 0.8301349811760557 -0.7281635349162674 0.0
H H -0.07907922986853416 0.8452049811760556 -0.7979335349162675 0.0
C C -0.11705131838517951 0.8750571846626255 -0.6545281665607416 0.0
C C -0.16175390380230298 0.9441785892768342 -0.7184227128062048 0.0
C C 0.0011035108212388246 0.7280871214931112 -0.7370063350279642 0.0
C C 0.05478596832874968 0.680165735464392 -0.6819513069413159 0.0
F F 0.10255594112827351 0.7265112545953832 -0.6080137137360697 0.0
F F 0.028130638407794752 0.631601513576842 -0.6427992760467783 0.0
F F 0.0885324605155429 0.643567460584614 -0.748767219842336 0.0
N N -0.23920795172783768 0.8781550449023151 -0.1972767816717461 0.0
N N -0.3238819759041912 0.9824934650405271 -0.388469775454744 0.0
O O -0.17104822917775112 0.9717399672697432 -0.5065217019058066 0.0
O O -0.18176043709079664 0.878256722226789 -0.4150971425469512 0.0
O O -0.22692410951454234 0.9394074674387224 -0.7192705865932156 0.0
O O -0.14000523078410465 0.9880535348898081 -0.771885657484817 0.0
Zn Zn -0.22527704794169176 0.9417396879398079 -0.3225242279922959 0.0
C C 0.7322765064261155 1.394255584162004 0.6135046499399147 0.0
H H 0.7311565064261154 1.444825584162004 0.5985746499399147 0.0
C C 0.7485777810876612 1.3580639736450286 0.5400009534730146 0.0
H H 0.7498577810876612 1.3767339736450286 0.47146095347301453 0.0
C C 0.7419092911300175 1.2657197166999277 0.5363291550851196 0.0
C C 0.7400606955353236 1.251039838849118 0.6442858229153202 0.0
H H 0.7426306955353236 1.200609838849118 0.6610458229153202 0.0
C C 0.7385366080542385 1.2991793872218256 0.728684030354097 0.0
H H 0.7393166080542384 1.2820593872218256 0.798454030354097 0.0
C C 0.846945522378409 1.4388551186023706 0.9867170236232111 0.0
H H 0.8205255223784089 1.4062251186023706 1.020887023623211 0.0
C C 0.925702394176346 1.4422307121973659 1.0227087472465446 0.0
H H 0.9445823941763459 1.415300712197366 1.0832687472465443 0.0
C C 0.9685561419304684 1.4958764045882815 0.9898995505861532 0.0
C C 0.9388527036392216 1.5405862970874336 0.8884001815500776 0.0
H H 0.9646227036392216 1.5727562970874336 0.8524601815500775 0.0
C C 0.8684926607402355 1.528803592558058 0.862172647265123 0.0
H H 0.8482726607402354 1.555173592558058 0.8017326472651229 0.0
C C 0.6614892551474381 1.4071520212220157 1.0004064759506561 0.0
C C 0.6280713486870756 1.3580772766598577 1.0563162112286777 0.0
C C 0.5841216449323875 1.2999360719251234 1.0075470593174793 0.0
H H 0.5845016449323873 1.2860160719251237 0.9365170593174793 0.0
C C 0.539048994267666 1.2507511185334055 1.0593662739807554 0.0
H H 0.5134289942676661 1.2104311185334056 1.0285262739807555 0.0
C C 0.5400832837636949 1.2834840523424458 1.188149970698163 0.0
C C 0.5709855742234291 1.33837757377533 1.2265376228238918 0.0
H H 0.5681655742234292 1.35344757377533 1.296307622823892 0.0
C C 0.622476587253225 1.3788226757378694 1.1511960434651105 0.0
C C 0.6713615165633426 1.4424038157156587 1.2139496561308114 0.0
C C 0.5064709379282161 1.2298724724311552 1.2578397342577035 0.0
C C 0.43732136872805427 1.177019492290048 1.182715348213774 0.0
F F 0.40850714396590326 1.213863520102674 1.118034256043974 0.0
F F 0.4725493458636377 1.131614628392387 1.1353843191419493 0.0
F F 0.39506576228749135 1.1455320006734322 1.238542999444584 0.0
N N 0.7430807228627175 1.3746106040290549 0.7146253409768948 0.0
N N 0.8173494818892403 1.4723353099142487 0.8933082830334081 0.0
O O 0.6732440013299412 1.4722750275548482 1.0095755056632465 0.0
O O 0.695511005294405 1.3662840493396886 0.9133385456571707 0.0
O O 0.7206992470436875 1.4321337623315185 1.216988065000781 0.0
O O 0.6337135301405278 1.4841643309672283 1.254436293110863 0.0
Zn Zn 0.7147569172643581 1.446343934805107 0.8327340959692398 0.0
C C 0.2638201104107298 1.4055553338642994 -0.09736065919393526 0.0
H H 0.26494011041072985 1.4561253338642994 -0.08243065919393526 0.0
C C 0.25915816620424514 1.3475257561105245 -0.02057068399275932 0.0
H H 0.2578781662042452 1.3661957561105245 0.047969316007240664 0.0
C C 0.2534485024272213 1.279483284816361 -0.053990467160002956 0.0
C C 0.24633853616185364 1.2457798943337457 -0.14560901417445185 0.0
H H 0.24376853616185354 1.1953498943337457 -0.16236901417445185 0.0
C C 0.26208270242405374 1.314281271514003 -0.22616987215415912 0.0
H H 0.2613027024240538 1.2971612715140028 -0.29593987215415907 0.0
C C 0.15575637233095385 1.4451181359839567 -0.48362681004845504 0.0
H H 0.18217637233095388 1.4124881359839565 -0.517796810048455 0.0
C C 0.08231662601058123 1.452381498505453 -0.5310211123431798 0.0
H H 0.06343662601058123 1.4254514985054532 -0.5915811123431798 0.0
C C 0.040762246392370464 1.4924828240955175 -0.46444128959646835 0.0
C C 0.0639464012108836 1.521248059077339 -0.39523658938834627 0.0
H H 0.03817640121088359 1.5534180590773388 -0.35929658938834635 0.0
C C 0.1355543966529494 1.5243122276139767 -0.34344735040782876 0.0
H H 0.15577439665294943 1.5506822276139767 -0.28300735040782865 0.0
C C 0.3381117434669656 1.4058795128806731 -0.49594035918339074 0.0
C C 0.3728314999208711 1.3590183139311398 -0.5400044405058497 0.0
C C 0.41527566732777416 1.2889492160440805 -0.5094313832801283 0.0
H H 0.41489566732777416 1.2750292160440806 -0.43840138328012823 0.0
C C 0.4518232427671105 1.2515321164943436 -0.5809785304268841 0.0
H H 0.4774432427671105 1.2112121164943437 -0.5501385304268841 0.0
C C 0.4691236697346897 1.279335606927007 -0.6790061141701061 0.0
C C 0.4209853470230103 1.3440890747247927 -0.729431807859988 0.0
H H 0.42380534702301015 1.3591590747247926 -0.7992018078599881 0.0
C C 0.3721446583187129 1.3670933482413137 -0.6664622856677992 0.0
C C 0.33289099554011725 1.4311415997161812 -0.7118598647860693 0.0
C C 0.4994673426101844 1.2395734860805567 -0.7467312975882685 0.0
C C 0.5566131237966774 1.181094139015586 -0.6874840569735532 0.0
F F 0.5969959183901419 1.215141608093736 -0.5972084637297957 0.0
F F 0.5272365540651048 1.1342276948189725 -0.6369853847307781 0.0
F F 0.590740153553471 1.151243653817661 -0.757280119322631 0.0
N N 0.26008019932358667 1.3743336561966573 -0.2186409422839678 0.0
N N 0.16966305476623594 1.4633813198115844 -0.3965855819756394 0.0
O O 0.32003695938761556 1.4642500857295557 -0.5018975958230728 0.0
O O 0.30776823595136793 1.371285214789838 -0.4365643871562989 0.0
O O 0.26721872141808806 1.4334325633486433 -0.711390059501031 0.0
O O 0.3591832181204327 1.4793396406611465 -0.7523947243650627 0.0
Zn Zn 0.27563156466438055 1.445944716933189 -0.32989376658976666 0.0
C C -0.2447766599983249 -0.8995870325648814 -0.6130871943631994 0.0
H H -0.24365665999832486 -0.9501570325648814 -0.5981571943631993 0.0
C C -0.23763584776558094 -0.8449525132244383 -0.5343883470868236 0.0
H H -0.23891584776558097 -0.8636225132244384 -0.46584834708682366 0.0
C C -0.23783713374913285 -0.77622815362905 -0.5356803430748632 0.0
C C -0.24760781075850422 -0.759142715371339 -0.6536875532083565 0.0
H H -0.25017781075850426 -0.7087127153713391 -0.6704475532083565 0.0
C C -0.24553561878681132 -0.8002990658272289 -0.7192357977467917 0.0
H H -0.2463156187868113 -0.7831790658272288 -0.7890057977467917 0.0
C C -0.3533423085278592 -0.9395583401351058 -0.9966982547472861 0.0
H H -0.3269223085278592 -0.9069283401351059 -1.030868254747286 0.0
C C -0.41938250323386433 -0.9458486349199254 -1.0346653938321924 0.0
H H -0.4382625032338643 -0.9189186349199254 -1.095225393832192 0.0
C C -0.45516598497449196 -0.9954224885076262 -0.9817907280011025 0.0
C C -0.4289783801966759 -1.0284676366996628 -0.8730548314156864 0.0
H H -0.45474838019667574 -1.0606376366996626 -0.8371148314156863 0.0
C C -0.3688389926159246 -1.0185196205008837 -0.8621918436762263 0.0
H H -0.34861899261592455 -1.0448896205008837 -0.8017518436762262 0.0
C C -0.16422993156465499 -0.8964222728291049 -0.9938043144700773 0.0
C C -0.11681087995790503 -0.8525694106736237 -1.0530970280689231 0.0
C C -0.0783597988271688 -0.7970357625939398 -1.0042456043537544 0.0
H H -0.07873979882716879 -0.7831157625939398 -0.9332156043537545 0.0
C C -0.03404687784777289 -0.7576449273020631 -1.0776012575235259 0.0
H H -0.008426877847772886 -0.717324927302063 -1.0467612575235261 0.0
C C -0.03818194387155683 -0.7727798871826458 -1.174086572435401 0.0
C C -0.07207058193643734 -0.8368963466470561 -1.205713552343788 0.0
H H -0.06925058193643736 -0.8519663466470561 -1.2754835523437884 0.0
C C -0.11706772981833569 -0.8668485405504331 -1.1557865596910593 0.0
C C -0.15919734175245748 -0.9303189199093478 -1.2060044952918243 0.0
C C -0.0017531962971708331 -0.7339048507294833 -1.2593690742451924 0.0
C C 0.05432182213401213 -0.6841366571048119 -1.183775705870147 0.0
F F 0.09504337365623267 -0.7141085306684016 -1.113430583027377 0.0
F F 0.02938623338092298 -0.6292950817800406 -1.1490339494911883 0.0
F F 0.09264904561538465 -0.6546665902663708 -1.2478344305645142 0.0
N N -0.23751397467099994 -0.8787442345034808 -0.6968767635184764 0.0
N N -0.3278753768380629 -0.9754634339594603 -0.8859554572494989 0.0
O O -0.17721102313791925 -0.9705801510920786 -1.0142148600971106 0.0
O O -0.1977145376915876 -0.8734991803235459 -0.9334782483818536 0.0
O O -0.23010907079089984 -0.9411932103740033 -1.2160436397634053 0.0
O O -0.1410884505119782 -0.9837098666541264 -1.2574354326011823 0.0
Zn Zn -0.2225205587050904 -0.9413565703915918 -0.8243601868811433 0.0
C C 0.24378032200003516 -0.8976222854318721 0.12324387638234006 0.0
H H 0.24266032200003515 -0.948192285431872 0.10831387638234007 0.0
C C 0.236635048103641 -0.8457995765894665 0.030431321484078604 0.0
H H 0.237915048103641 -0.8644695765894665 -0.03810867851592138 0.0
C C 0.2465392560674418 -0.7738607300011117 0.034210660546883744 0.0
C C 0.23778877254102251 -0.75850782382631 0.15304596238396223 0.0
H H 0.24035877254102248 -0.70807782382631 0.16980596238396223 0.0
C C 0.24215491836877343 -0.8112881404839202 0.2376717412441652 0.0
H H 0.2429349183687734 -0.7941681404839201 0.3074417412441652 0.0
C C 0.35003447674322125 -0.9404296408792145 0.47255098269133583 0.0
H H 0.3236144767432212 -0.9077996408792147 0.5067209826913358 0.0
C C 0.4237425462642442 -0.9483339473359675 0.5171329619198988 0.0
H H 0.44262254626424413 -0.9214039473359675 0.5776929619198987 0.0
C C 0.4669323999364666 -0.9898934787916958 0.48216991907116363 0.0
C C 0.43619110016699264 -1.0221511579048022 0.38791666874496106 0.0
H H 0.4619611001669925 -1.0543211579048017 0.35197666874496114 0.0
C C 0.36336104484282283 -1.02622921932854 0.35971527683876553 0.0
H H 0.3431410448428228 -1.05259921932854 0.2992752768387655 0.0
C C 0.17039905278178005 -0.906814362978333 0.47856433783459823 0.0
C C 0.12050531720093152 -0.8590476589900897 0.5684976495603323 0.0
C C 0.0796388227649646 -0.7976081315682425 0.5030718094033049 0.0
H H 0.0800188227649646 -0.7836881315682426 0.4320418094033048 0.0
C C 0.04195255202488726 -0.7599862191278239 0.5582732405951546 0.0
H H 0.016332552024887266 -0.7196662191278239 0.5274332405951545 0.0
C C 0.03325992359748082 -0.7769596923464981 0.6636066364354753 0.0
C C 0.0817581896555615 -0.8422392669300979 0.7204666392114909 0.0
H H 0.07893818965556151 -0.8573092669300977 0.7902366392114911 0.0
C C 0.12235008413939034 -0.8784677111816939 0.6466113021919118 0.0
C C 0.1627487607439011 -0.9460623785669864 0.7087491581784571 0.0
C C -0.0035984668002644413 -0.7272760932522861 0.750707520591802 0.0
C C -0.05463997267648093 -0.6743598671476474 0.6759968440360086 0.0
F F -0.0935468445153136 -0.708177536180817 0.6131456230698481 0.0
F F -0.03554309808731309 -0.6312309251044587 0.6328226490553683 0.0
F F -0.09637143506510766 -0.6521487441241739 0.7335736556166021 0.0
N N 0.2337261704826215 -0.8683394290797729 0.2091040252840452 0.0
N N 0.3291313528126108 -0.9765020138646475 0.39040135851628166 0.0
O O 0.17886227458060752 -0.9666697865311339 0.5038651504716676 0.0
O O 0.1915717292175068 -0.8757766061299269 0.41427580135229275 0.0
O O 0.22242921401216117 -0.9335237635713803 0.7098488395375826 0.0
O O 0.14470354155730167 -0.9832152965844402 0.7764197224304977 0.0
Zn Zn 0.21675678131764697 -0.9473432713159202 0.3237906355039395 0.0
C C 0.2566049029770052 -0.3979226247083667 -0.6158816183654823 0.0
H H 0.2577249029770052 -0.4484926247083666 -0.6009516183654823 0.0
C C 0.2640051489567399 -0.35209625043774817 -0.5250191412291649 0.0
H H 0.26272514895673993 -0.3707662504377482 -0.45647914122916494 0.0
C C 0.25579243563157167 -0.2830232235010184 -0.5536595044187244 0.0
C C 0.26127353182820284 -0.24471898675119427 -0.6348417888580511 0.0
H H 0.2587035318282028 -0.19428898675119424 -0.651601788858051 0.0
C C 0.2529064021354473 -0.3094683440349179 -0.7326424160664169 0.0
H H 0.2521264021354473 -0.2923483440349179 -0.8024124160664169 0.0
C C 0.14621386842489842 -0.44439894547127246 -0.9769124707023412 0.0
H H 0.1726338684248984 -0.4117689454712725 -1.0110824707023411 0.0
C C 0.07555725420686253 -0.44748029515590504 -1.0304976021448153 0.0
H H 0.05667725420686251 -0.42055029515590503 -1.0910576021448153 0.0
C C 0.03516745836004214 -0.502682816865927 -0.9907678657064607 0.0
C C 0.0654407368835744 -0.5421314129382726 -0.8859270979573401 0.0
H H 0.039670736883574365 -0.5743014129382724 -0.8499870979573401 0.0
C C 0.14684775933435 -0.5144762038823898 -0.8436549679536554 0.0
H H 0.16706775933435003 -0.5408462038823898 -0.7832149679536553 0.0
C C 0.3398887130443092 -0.40828579880177684 -0.9823702295095986 0.0
C C 0.37760030751212253 -0.3618130245537478 -1.065468971856677 0.0
C C 0.41656295071928756 -0.29009417598060716 -1.011208621771981 0.0
H H 0.4161829507192876 -0.27617417598060723 -0.940178621771981 0.0
C C 0.46168950807894693 -0.2511259411994919 -1.0778003386258657 0.0
H H 0.4873095080789468 -0.2108059411994919 -1.046960338625866 0.0
C C 0.46521849274562743 -0.2697560125352993 -1.1768683315007171 0.0
C C 0.41663022482329337 -0.3419920979422537 -1.212020741706945 0.0
H H 0.41945022482329336 -0.35706209794225363 -1.2817907417069452 0.0
C C 0.37986007650577713 -0.37916644828824403 -1.1669147693518547 0.0
C C 0.33331664698020985 -0.4379892233993431 -1.2021884158384102 0.0
C C 0.5043547951973207 -0.23474699397508111 -1.2509643780320974 0.0
C C 0.5606366691270275 -0.17332974083056968 -1.1768976215269533 0.0
F F 0.5892073477786128 -0.22036046285311844 -1.1228592553924646 0.0
F F 0.5182270209835569 -0.13140727450020775 -1.1416098039571458 0.0
F F 0.6047857850879096 -0.14614881688063858 -1.2405703800736525 0.0
N N 0.2614011097168391 -0.369197475711884 -0.7143128484046465 0.0
N N 0.17838434924676744 -0.47614268057730724 -0.9062920961186277 0.0
O O 0.3355441620826047 -0.4754348979762546 -1.0047070440824841 0.0
O O 0.31045406680143256 -0.3622204673773594 -0.9113910192069435 0.0
O O 0.27889915401783527 -0.43566361375870205 -1.2148717331175216 0.0
O O 0.3489937625284166 -0.48701817232291617 -1.2683395685028045 0.0
Zn Zn 0.27665632456976724 -0.4525104544437875 -0.8273685703145729 0.0
C C 0.7361015092305396 -0.3976014344257852 0.10548645252685937 0.0
H H 0.7349815092305396 -0.44817143442578516 0.09055645252685937 0.0
C C 0.7477459087993499 -0.3567538149325879 0.026045986639244966 0.0
H H 0.7490259087993498 -0.375423814932588 -0.04249401336075502 0.0
C C 0.7434684934456663 -0.28288194703886393 0.03422889665537604 0.0
C C 0.7494378284259536 -0.24467770212821707 0.1512419166358172 0.0
H H 0.7520078284259536 -0.1942477021282171 0.16800191663581718 0.0
C C 0.7368809976447609 -0.2991080252560546 0.22735306139848052 0.0
H H 0.7376609976447608 -0.2819880252560546 0.2971230613984805 0.0
C C 0.8458984790359814 -0.44044092465624 0.4816310200426482 0.0
H H 0.8194784790359813 -0.40781092465624 0.5158010200426482 0.0
C C 0.922022785010934 -0.4482308642238569 0.5368046936371852 0.0
H H 0.940902785010934 -0.42130086422385693 0.5973646936371851 0.0
C C 0.9583798215105521 -0.48871645318855905 0.4885863138274338 0.0
C C 0.9261643988702878 -0.5330362039555975 0.37924841094098954 0.0
H H 0.9519343988702879 -0.5652062039555973 0.34330841094098963 0.0
C C 0.8618532881326806 -0.5166427157280236 0.3512169039394461 0.0
H H 0.8416332881326806 -0.5430127157280236 0.290776903939446 0.0
C C 0.6661217838546665 -0.39869986711771865 0.4984746771056432 0.0
C C 0.6239951979097808 -0.3622894744405257 0.5471637828771574 0.0
C C 0.5768034870386665 -0.30033625452550583 0.5032313039823446 0.0
H H 0.5771834870386664 -0.28641625452550595 0.4322013039823445 0.0
C C 0.5471289832530147 -0.2508902656366482 0.5813397641400692 0.0
H H 0.5215089832530148 -0.2105702656366482 0.5504997641400692 0.0
C C 0.5484297644348175 -0.273283883932383 0.6817046971317778 0.0
C C 0.579393332642529 -0.33878132327301885 0.7135716714786818 0.0
H H 0.5765733326425291 -0.35385132327301877 0.783341671478682 0.0
C C 0.6125728270624156 -0.3835600849452761 0.6471182964054579 0.0
C C 0.6680635117232536 -0.43523173693199896 0.7101298967233282 0.0
C C 0.49752856533042683 -0.23841031116083586 0.7391802581667695 0.0
C C 0.44573710622746837 -0.1788477973533545 0.6951409944285991 0.0
F F 0.40159881094045174 -0.22666017167079358 0.6123406944207874 0.0
F F 0.46882679692049745 -0.13245796084918118 0.6362208646566366 0.0
F F 0.4036830712031125 -0.14846991899941986 0.7368239343978575 0.0
N N 0.7366790600390019 -0.3739115445851133 0.2137239920781023 0.0
N N 0.8229941539457082 -0.4736811859566076 0.39001206145115763 0.0
O O 0.6672903282531916 -0.4780664131716817 0.5113082296129904 0.0
O O 0.6942567584144843 -0.3725415285913151 0.4232933951245432 0.0
O O 0.7304297279426062 -0.43650324694254 0.729129204487191 0.0
O O 0.6399994179854062 -0.4871258522875757 0.7526558131397654 0.0
Zn Zn 0.716630541354167 -0.44697961026923483 0.3370145651427056 0.0
_cell_length_a 19.5206
_cell_length_b 17.9856
_cell_length_c 12.6054
_cell_angle_alpha 90.0
_cell_angle_beta 99.0355
_cell_angle_gamma 90.0
_symmetry_space_group_name_H-M         'P 1'
_symmetry_Int_Tables_number            1
loop_
_symmetry_equiv_pos_as_xyz
   'x, y, z'
                         
loop_
_atom_site_label
_atom_site_type_symbol
_atom_site_fract_x 
_atom_site_fract_y
_atom_site_fract_z
_atom_site_charge
C C 0.23643178225955438 0.8933042489386125 0.601356391950413 0.0
H H 0.23531178225955438 0.9438742489386125 0.586426391950413 0.0
C C 0.24450549735059887 0.8488448484986071 0.5193921642809325 0.0
H H 0.24578549735059887 0.8675148484986072 0.4508521642809325 0.0
C C 0.2536600125191041 0.7835713114478624 0.5562903504539422 0.0
C C 0.24221366751753132 0.7563356854340567 0.6596592026819256 0.0
H H 0.24478366751753133 0.7059056854340566 0.6764192026819256 0.0
C C 0.24496048430837195 0.8026554488308226 0.7120522604773267 0.0
H H 0.24574048430837195 0.7855354488308226 0.7818222604773267 0.0
C C 0.35304730852237987 0.941521282682385 0.9710926479845094 0.0
H H 0.3266273085223798 0.9088912826823852 1.0052626479845095 0.0
C C 0.42685462992649326 0.9538866631553141 1.0303022581431809 0.0
H H 0.4457346299264932 0.9269566631553141 1.0908622581431806 0.0
C C 0.46523934619385326 1.0023597261781905 0.9939142326440055 0.0
C C 0.43748015430968146 1.0293654050131915 0.8915521671091533 0.0
H H 0.4632501543096813 1.0615354050131913 0.8556121671091532 0.0
C C 0.3547078295507909 1.0191291665177489 0.8420307542091517 0.0
H H 0.3344878295507908 1.0454991665177489 0.7815907542091517 0.0
C C 0.16474625753965852 0.9110722450175179 0.9767637494123129 0.0
C C 0.1283798967250388 0.8653443734743879 1.0557457161503472 0.0
C C 0.08042944392129735 0.8006289006534684 1.0137910773952756 0.0
H H 0.08080944392129734 0.7867089006534683 0.9427610773952756 0.0
C C 0.049963811663092265 0.7592276445721974 1.0692931149069866 0.0
H H 0.02434381166309227 0.7189076445721972 1.0384531149069869 0.0
C C 0.035642962972619846 0.7721365673949877 1.1788700569660175 0.0
C C 0.07143211310362918 0.8389085653572204 1.219008228862328 0.0
H H 0.06861211310362919 0.8539785653572203 1.2887782288623282 0.0
C C 0.12658687855369116 0.871436646971688 1.1571930701633004 0.0
C C 0.16415221135366628 0.9386158364864364 1.2082146839642736 0.0
C C 0.0010374600429389352 0.73827910576362 1.2602628207774027 0.0
C C -0.04744191372705132 0.6780137251497549 1.1821744918254744 0.0
F F -0.10075472345892468 0.7220998749719714 1.1053735469108625 0.0
F F -0.03256286115094555 0.6291041704822274 1.1470100846084315 0.0
F F -0.09525350409463218 0.6512390098259875 1.2326790578461775 0.0
N N 0.23829044760689938 0.8789287839214045 0.7155215028382476 0.0
N N 0.32294919052999405 0.9783118949829748 0.901537597204397 0.0
O O 0.17040117190584195 0.9720192155917762 0.9889915632570406 0.0
O O 0.18356278168766288 0.861996652003022 0.9146456429956559 0.0
O O 0.22855024414396155 0.9247560344943705 1.2078978312187116 0.0
O O 0.13829045142788657 0.9832515255132273 1.2480888334731215 0.0
Zn Zn 0.2204772571767715 0.9487668759451515 0.8175753031068448 0.0
C C -0.24411446988046598 0.9043150589824775 -0.10293571664813506 0.0
H H -0.24299446988046597 0.9548850589824774 -0.08800571664813506 0.0
C C -0.24365718651996948 0.8465549678549679 -0.04080990801971117 0.0
H H -0.2449371865199695 0.8652249678549679 0.027730091980288817 0.0
C C -0.24486446613322696 0.7854993031163665 -0.04700295575213975 0.0
C C -0.2526619133200351 0.752109046562828 -0.139083670644464 0.0
H H -0.25523191332003503 0.701679046562828 -0.155843670644464 0.0
C C -0.24561750529348084 0.8040715235178942 -0.23420560933370646 0.0
H H -0.2463975052934808 0.7869515235178942 -0.30397560933370643 0.0
C C -0.3559523065138455 0.9275350023665545 -0.4890772356828756 0.0
H H -0.3295323065138455 0.8949050023665547 -0.5232472356828757 0.0
C C -0.42633260882256385 0.9440516348125424 -0.51628350612999 0.0
H H -0.4452126088225638 0.9171216348125424 -0.5768435061299899 0.0
C C -0.4689361722361143 0.9902123688763307 -0.4769647327334769 0.0
C C -0.43727823286639494 1.0227550277834616 -0.38501995151703716 0.0
H H -0.4630482328663948 1.0549250277834614 -0.3490799515170372 0.0
C C -0.35532862583270414 1.0221513290695572 -0.3442446028171175 0.0
H H -0.33510862583270407 1.0485213290695572 -0.28380460281711745 0.0
C C -0.15479893940136885 0.9100598989539325 -0.48486689047859766 0.0
C C -0.11567227820355855 0.8620418634023413 -0.5450086475588938 0.0
C C -0.08422211762910135 0.8063920198268755 -0.5036188728676132 0.0
H H -0.08460211762910133 0.7924720198268755 -0.4325888728676131 0.0
C C -0.04668889053749004 0.7605806436866102 -0.5642173250551176 0.0
H H -0.021068890537490045 0.72026064368661 -0.5333773250551175 0.0
C C -0.04229486894282851 0.7752333295333104 -0.669615128172172 0.0
C C -0.08064148446898581 0.8353338634009215 -0.7265154807937321 0.0
H H -0.07782148446898582 0.8504038634009214 -0.7962854807937322 0.0
C C -0.12257374391555784 0.8852571927096581 -0.6620779418501268 0.0
C C -0.16675010595136397 0.9393021878037533 -0.7033030362389315 0.0
C C 0.004707183715278331 0.7277968473744567 -0.7483615356595381 0.0
C C 0.051592487154139575 0.6821838717298955 -0.6751321717507303 0.0
F F 0.0885374432157053 0.7153956929013899 -0.61494397170537 0.0
F F 0.03592882356245637 0.6267138270750929 -0.6277308919947254 0.0
F F 0.0923651969497592 0.6487472515391528 -0.7404211040073854 0.0
N N -0.24249610306946168 0.877355327354927 -0.2219331314952005 0.0
N N -0.31815086779416496 0.977229404933957 -0.4074990170158524 0.0
O O -0.17123363645917875 0.9763811879061448 -0.4903604094133408 0.0
O O -0.19628918171427578 0.8691891459459878 -0.4348964724893719 0.0
O O -0.23663945962672925 0.9336921548139753 -0.7227935746865294 0.0
O O -0.14487020576866025 0.9907562922808469 -0.771159292148372 0.0
Zn Zn -0.21686809896954448 0.9508404483275814 -0.3205708399753244 0.0
C C 0.7369343905748607 1.4015910248226024 0.6225109860245349 0.0
H H 0.7358143905748606 1.4521610248226025 0.6075809860245348 0.0
C C 0.7345558643345947 1.3439411500186946 0.5261643508381827 0.0
H H 0.7358358643345948 1.3626111500186946 0.45762435083818265 0.0
C C 0.7420207973259972 1.2792230459428255 0.5347640416857679 0.0
C C 0.7501105459879186 1.2603611674132489 0.6555904917686659 0.0
H H 0.7526805459879183 1.2099311674132491 0.6723504917686659 0.0
C C 0.7477707548985149 1.3012170288521874 0.7331416847557173 0.0
H H 0.7485507548985147 1.2840970288521873 0.8029116847557174 0.0
C C 0.8594260241519122 1.4457113112290145 0.9856314620375156 0.0
H H 0.833006024151912 1.4130813112290146 1.0198014620375155 0.0
C C 0.9166807038806032 1.4416731132506364 1.028003940740894 0.0
H H 0.9355607038806032 1.4147431132506367 1.088563940740894 0.0
C C 0.967854659299432 1.493450026136159 0.9876036929387101 0.0
C C 0.9274642046772241 1.5357544374474816 0.8950158494127091 0.0
H H 0.9532342046772244 1.5679244374474817 0.859075849412709 0.0
C C 0.8698964017790194 1.518928936899577 0.8573329429568048 0.0
H H 0.8496764017790194 1.5452989368995769 0.7968929429568048 0.0
C C 0.6588219209313774 1.3988498360509727 0.9828918438485761 0.0
C C 0.6178213972648717 1.3556170189033163 1.0544041050201334 0.0
C C 0.5763486727727718 1.2965004332281194 1.017254129362749 0.0
H H 0.5767286727727717 1.2825804332281197 0.9462241293627491 0.0
C C 0.5498142508947985 1.2642688506958122 1.065637847518521 0.0
H H 0.5241942508947987 1.2239488506958123 1.034797847518521 0.0
C C 0.536853172195662 1.2811038015071365 1.1859089893005206 0.0
C C 0.5815901770626237 1.3379445136255435 1.2174402072329025 0.0
H H 0.5787701770626238 1.3530145136255434 1.2872102072329028 0.0
C C 0.6215271050956053 1.3688729964699489 1.1499395831952208 0.0
C C 0.6628320359608716 1.428564367079739 1.2040303161220582 0.0
C C 0.4970284165137037 1.22854526450855 1.2482935457312956 0.0
C C 0.44686407470286904 1.1764252723641593 1.1780900237177199 0.0
F F 0.405422364113582 1.2142256720797733 1.1223995470541217 0.0
F F 0.4704435066579303 1.1166192470299467 1.1335535536782033 0.0
F F 0.4102932432060094 1.149136206902801 1.2494949596497429 0.0
N N 0.7338702342447095 1.3778918453878555 0.6979781674022721 0.0
N N 0.8166005350341241 1.467057338166442 0.8831318468921632 0.0
O O 0.6743587270847717 1.4721287963197434 1.0154932570075474 0.0
O O 0.6881927922937658 1.3640494563237133 0.9309932911787396 0.0
O O 0.7235943064296021 1.4340308430906805 1.215388900033973 0.0
O O 0.6502088376744625 1.4894729145064225 1.274032015499755 0.0
Zn Zn 0.7200199163185393 1.439964504720239 0.8331861193093905 0.0
C C 0.260847663332104 1.4020635863742332 -0.10199962349047927 0.0
H H 0.26196766333210403 1.4526335863742332 -0.08706962349047927 0.0
C C 0.25449446809527726 1.3574613239175344 -0.018216119585731903 0.0
H H 0.2532144680952773 1.3761313239175343 0.05032388041426808 0.0
C C 0.2544987630513682 1.2710329003948304 -0.03079259500768402 0.0
C C 0.245757551311934 1.2482755087329453 -0.15493881636994894 0.0
H H 0.24318755131193395 1.1978455087329454 -0.17169881636994894 0.0
C C 0.26399106923380505 1.307537133647245 -0.22689418565380448 0.0
H H 0.2632110692338051 1.2904171336472448 -0.2966641856538044 0.0
C C 0.146298625514193 1.4323638842664062 -0.4798880916633904 0.0
H H 0.17271862551419304 1.3997338842664062 -0.5140580916633904 0.0
C C 0.08267249884837499 1.4414493368913206 -0.5211591606124751 0.0
H H 0.06379249884837497 1.4145193368913207 -0.5817191606124751 0.0
C C 0.03299656869196279 1.494593381038827 -0.4870792279143195 0.0
C C 0.06026207166142697 1.5340485780949717 -0.3837706891418719 0.0
H H 0.034492071661426954 1.5662185780949718 -0.347830689141872 0.0
C C 0.13859364691120063 1.5170204569159986 -0.3425095356360561 0.0
H H 0.15881364691120062 1.5433904569159986 -0.282069535636056 0.0
C C 0.3425720398194179 1.4103238868379233 -0.4766353935025186 0.0
C C 0.37841742289805547 1.366035718858637 -0.5570402303813452 0.0
C C 0.41082994928019717 1.2899584723792628 -0.527030018861025 0.0
H H 0.4104499492801972 1.276038472379263 -0.4560000188610249 0.0
C C 0.453242513414455 1.2625618700437844 -0.5840807050945102 0.0
H H 0.47886251341445507 1.2222418700437847 -0.5532407050945102 0.0
C C 0.4612822192599321 1.2875501608768858 -0.6682522822487431 0.0
C C 0.42396794412275274 1.346967363094678 -0.7236498533207184 0.0
H H 0.4267879441227525 1.3620373630946778 -0.7934198533207186 0.0
C C 0.37797610444398627 1.371941840081705 -0.6657889107871015 0.0
C C 0.3304383394401596 1.4322839615158809 -0.7282283698687319 0.0
C C 0.5057225940613818 1.2344361408135396 -0.7374563748587092 0.0
C C 0.55224714977684 1.1846161524153087 -0.6743848812645592 0.0
F F 0.5902107806322825 1.218389657171278 -0.6058925346132013 0.0
F F 0.5236322832320658 1.1245571335006663 -0.6423215808375077 0.0
F F 0.5890397603398984 1.1516285635544632 -0.7550386231033052 0.0
N N 0.26727949943432106 1.385424896492591 -0.202081941401015 0.0
N N 0.18578790776581774 1.4748897583107912 -0.396631585595312 0.0
O O 0.3202701793593637 1.470986414130121 -0.5038560008076929 0.0
O O 0.30313482695072025 1.3716426552608174 -0.42514650919861036 0.0
O O 0.27477520887136114 1.4306708076241639 -0.7108445711446164 0.0
O O 0.35351576396053985 1.4807531483441092 -0.7572923524381934 0.0
Zn Zn 0.2717213221000539 1.4442676633759899 -0.3393557028680007 0.0
C C -0.24302781109385516 -0.903158015447168 -0.622546962113507 0.0
H H -0.24190781109385515 -0.953728015447168 -0.607616962113507 0.0
C C -0.24512532138051038 -0.8511791330754411 -0.5326405816112854 0.0
H H -0.2464053213805104 -0.8698491330754412 -0.46410058161128537 0.0
C C -0.2485210560766208 -0.7756817515444288 -0.5586374857446474 0.0
C C -0.2514426176611263 -0.749049145876161 -0.6410068613936608 0.0
H H -0.25401261766112637 -0.698619145876161 -0.6577668613936608 0.0
C C -0.23765463421489127 -0.8006464393068715 -0.7203711166323183 0.0
H H -0.23843463421489125 -0.7835264393068715 -0.7901411166323183 0.0
C C -0.358346698199327 -0.9378733465993223 -0.9989706514379878 0.0
H H -0.331926698199327 -0.9052433465993224 -1.0331406514379877 0.0
C C -0.416705769296199 -0.9401344375566063 -1.025846214105804 0.0
H H -0.43558576929619897 -0.9132044375566062 -1.086406214105804 0.0
C C -0.4660154789529421 -0.993577866702016 -0.9726724494204657 0.0
C C -0.42999572699886374 -1.0394301752150767 -0.8874207662136856 0.0
H H -0.45576572699886364 -1.0716001752150766 -0.8514807662136855 0.0
C C -0.3550215355877764 -1.0113683591208447 -0.8506538164883686 0.0
H H -0.33480153558777637 -1.0377383591208447 -0.7902138164883685 0.0
C C -0.16775342719425793 -0.9052149547462772 -0.9903438890771296 0.0
C C -0.11791188647760148 -0.8534862776499554 -1.0410587259724304 0.0
C C -0.09074421177930839 -0.7936337714341749 -1.0126904342939995 0.0
H H -0.09112421177930838 -0.7797137714341749 -0.9416604342939996 0.0
C C -0.042891001085662656 -0.7483941824566087 -1.0680768627586859 0.0
H H -0.01727100108566265 -0.7080741824566086 -1.0372368627586859 0.0
C C -0.03700301352337952 -0.7808847241937479 -1.1660336768919306 0.0
C C -0.07955681092109272 -0.8481469966033421 -1.2231116687375905 0.0
H H -0.07673681092109276 -0.8632169966033421 -1.2928816687375908 0.0
C C -0.11953802829340167 -0.880502177152906 -1.1472446074305669 0.0
C C -0.17063731378481495 -0.9297128188222546 -1.2225247365095255 0.0
C C -0.00488859995220467 -0.7336466876715563 -1.2458047494886004 0.0
C C 0.05493316702665294 -0.6891649016306731 -1.1976522002835417 0.0
F F 0.09410459055756319 -0.710508936956221 -1.1023912386239678 0.0
F F 0.025508592892643837 -0.6284257920732329 -1.1333837765181427 0.0
F F 0.10285265256460067 -0.6446040078592778 -1.251587756610455 0.0
N N -0.2392818721021483 -0.8856609777270135 -0.7216264576089528 0.0
N N -0.325680519214858 -0.9648340786242504 -0.8902944103030762 0.0
O O -0.1782322957774505 -0.9774848924707905 -0.9958039487919055 0.0
O O -0.18680495944775927 -0.8609208622155309 -0.9137763723375087 0.0
O O -0.22333430531562692 -0.9365965969009996 -1.2082638600673408 0.0
O O -0.1421241652451642 -0.9910772796581545 -1.260285987739072 0.0
Zn Zn -0.22035615323020158 -0.9468987866612477 -0.8320823207933157 0.0
C C 0.2419254639973519 -0.8873292374196441 0.1181437763856996 0.0
H H 0.2408054639973519 -0.9378992374196441 0.10321377638569962 0.0
C C 0.24017104534539865 -0.8596965342088391 0.029481622329612125 0.0
H H 0.24145104534539868 -0.8783665342088391 -0.03905837767038786 0.0
C C 0.24526271300050767 -0.7754272341089311 0.0446465732523856 0.0
C C 0.25333639735067764 -0.7529073170647054 0.1492269243495475 0.0
H H 0.2559063973506776 -0.7024773170647054 0.16598692434954748 0.0
C C 0.23710213872508004 -0.8122747865754757 0.2206558761811044 0.0
H H 0.23788213872508002 -0.7951547865754757 0.2904258761811044 0.0
C C 0.34749765267000643 -0.9413468259588297 0.4902532395593231 0.0
H H 0.32107765267000643 -0.9087168259588299 0.5244232395593231 0.0
C C 0.42277595409907226 -0.9468781611822029 0.5271904319010366 0.0
H H 0.4416559540990722 -0.9199481611822029 0.5877504319010366 0.0
C C 0.4557957965376966 -0.992335397726104 0.476543136629325 0.0
C C 0.4311007479802729 -1.0340769085156405 0.38492000882578825 0.0
H H 0.45687074798027283 -1.0662469085156403 0.3489800088257883 0.0
C C 0.3588443745973023 -1.0285134858606637 0.35154204974275466 0.0
H H 0.3386243745973022 -1.054883485860664 0.29110204974275455 0.0
C C 0.1648321539517762 -0.9090299697634036 0.4805808051877789 0.0
C C 0.11900499321415145 -0.8590969790805729 0.5592360539438679 0.0
C C 0.0884250482274973 -0.7877010860106598 0.514817433687857 0.0
H H 0.08880504822749728 -0.7737810860106599 0.44378743368785695 0.0
C C 0.04976366375757947 -0.7539941043187046 0.5679260637717621 0.0
H H 0.024143663757579474 -0.7136741043187045 0.5370860637717622 0.0
C C 0.041766142447425846 -0.7711106244226119 0.686686741310718 0.0
C C 0.07350412850687661 -0.834871605932944 0.7256980209386282 0.0
H H 0.07068412850687662 -0.8499416059329439 0.7954680209386283 0.0
C C 0.1297132066485976 -0.8730318107256336 0.6582950591184829 0.0
C C 0.1648069757786045 -0.9396651275879571 0.7250303128476351 0.0
C C -0.004181536834290795 -0.7302967488161975 0.7383588015092079 0.0
C C -0.04739424100509698 -0.6741304560044872 0.6894151670773632 0.0
F F -0.09635662340932657 -0.7131171141243903 0.6055032396437222 0.0
F F -0.02539112132472974 -0.6295589938206999 0.6367808039820324 0.0
F F -0.09771672019894291 -0.6410144753616015 0.7463076913063216 0.0
N N 0.22881064497595446 -0.883860707724627 0.21067596204531397 0.0
N N 0.3211449236831758 -0.9771884982769921 0.3932023241312761 0.0
O O 0.1666207096213316 -0.9790949006427644 0.49625082517488067 0.0
O O 0.1823666787725091 -0.8705250103724261 0.41892513469423237 0.0
O O 0.2252225644183953 -0.9303986437645781 0.7153738582900846 0.0
O O 0.1527615080721989 -0.9828291370506826 0.7630676259623911 0.0
Zn Zn 0.22004051240805295 -0.9457565634477723 0.32097493890231515 0.0
C C 0.2665367607692281 -0.39728936895065037 -0.6205811449109565 0.0
H H 0.2676567607692281 -0.4478593689506503 -0.6056511449109564 0.0
C C 0.2627745290664479 -0.34962054786992736 -0.5234832913890128 0.0
H H 0.26149452906644793 -0.36829054786992743 -0.45494329138901285 0.0
C C 0.25819948259550496 -0.2771817231139452 -0.5302033482045877 0.0
C C 0.26278198190070823 -0.248046410357108 -0.6414082690511425 0.0
H H 0.2602119819007082 -0.197616410357108 -0.6581682690511425 0.0
C C 0.2555545729882416 -0.3140969852462122 -0.7189979707103955 0.0
H H 0.25477457298824163 -0.29697698524621224 -0.7887679707103955 0.0
C C 0.14274215957067785 -0.4336007537850959 -0.9863321529927159 0.0
H H 0.16916215957067787 -0.4009707537850959 -1.0205021529927158 0.0
C C 0.07106205371880188 -0.4488704475385413 -1.035728927159192 0.0
H H 0.05218205371880186 -0.4219404475385412 -1.096288927159192 0.0
C C 0.031058503281379497 -0.5020500201925401 -0.9731223810228729 0.0
C C 0.07750162596921663 -0.5256023813071102 -0.8782118157124917 0.0
H H 0.05173162596921663 -0.55777238130711 -0.8422718157124917 0.0
C C 0.13849803893748186 -0.5196479495835264 -0.8550264441301414 0.0
H H 0.1587180389374819 -0.5460179495835265 -0.7945864441301412 0.0
C C 0.34106429715432984 -0.40419771362669155 -0.9904901720852515 0.0
C C 0.38237699193644153 -0.3514601609253399 -1.0593077561554975 0.0
C C 0.4184364325774909 -0.3002490664959539 -1.0211209568558088 0.0
H H 0.418056432577491 -0.28632906649595397 -0.9500909568558088 0.0
C C 0.4597577822154746 -0.25156357297450155 -1.0575850803991957 0.0
H H 0.48537778221547456 -0.21124357297450153 -1.0267450803991958 0.0
C C 0.4536434781825562 -0.2846970290406758 -1.1759058621560234 0.0
C C 0.415637138083373 -0.34316858181459425 -1.2147633282262795 0.0
H H 0.418457138083373 -0.3582385818145942 -1.2845333282262799 0.0
C C 0.3801215793577586 -0.3724404396321953 -1.1521477033050327 0.0
C C 0.3290812610959874 -0.42882177700122387 -1.2094180845955447 0.0
C C 0.49914956655475606 -0.23306412661315964 -1.25233857223167 0.0
C C 0.5601851189572307 -0.18457723913596394 -1.1930428470220245 0.0
F F 0.5941828175690145 -0.21606271106591388 -1.0959245193803653 0.0
F F 0.5231950576086942 -0.12309832496842654 -1.1329002700318862 0.0
F F 0.6010962585192116 -0.15162986261696806 -1.2481156976213725 0.0
N N 0.2634760800207583 -0.36693929900754285 -0.708196601673486 0.0
N N 0.17673807407342232 -0.4690146707032981 -0.8845172572909004 0.0
O O 0.32607325159856165 -0.4698811935930616 -1.0156531217065952 0.0
O O 0.30421248592811184 -0.36499364857196254 -0.932534865619628 0.0
O O 0.2713139745242682 -0.43961861548625536 -1.226414576890603 0.0
O O 0.3494237243921932 -0.4887615568659415 -1.2670257630374362 0.0
Zn Zn 0.28041993333741 -0.4583745974740972 -0.8270108085069886 0.0
C C 0.7332609635470011 -0.3981951418924858 0.10920192638956877 0.0
H H 0.7321409635470012 -0.44876514189248573 0.09427192638956877 0.0
C C 0.7486710930703778 -0.34948564187365294 0.03827000695396274 0.0
H H 0.7499510930703778 -0.368155641873653 -0.030269993046037245 0.0
C C 0.7520788782816302 -0.27753003317872554 0.04364687869029663 0.0
C C 0.7436688777101101 -0.25827889138103116 0.15696658288703694 0.0
H H 0.7462388777101101 -0.20784889138103113 0.1737265828870369 0.0
C C 0.7403239548550282 -0.29894360983458607 0.215273996567188 0.0
H H 0.7411039548550281 -0.28182360983458604 0.28504399656718793 0.0
C C 0.8610260369118071 -0.4305201885225642 0.495048780656025 0.0
H H 0.834606036911807 -0.39789018852256414 0.529218780656025 0.0
C C 0.9157058917324324 -0.4558086329527745 0.5128211183870485 0.0
H H 0.9345858917324324 -0.4288786329527745 0.5733811183870484 0.0
C C 0.9581786405696514 -0.48710703396269744 0.4806387254837911 0.0
C C 0.9382810653414518 -0.5326691873005386 0.39339583299183556 0.0
H H 0.9640510653414519 -0.5648391873005383 0.3574558329918356 0.0
C C 0.8626558642608039 -0.5185026321744423 0.34350158265110237 0.0
H H 0.8424358642608039 -0.5448726321744423 0.2830615826511023 0.0
C C 0.6598632607180978 -0.4110825844228909 0.4876479630228647 0.0
C C 0.6233154807945269 -0.35311052042491525 0.5436745653790358 0.0
C C 0.5805998485305489 -0.3054816582994832 0.5132849061089496 0.0
H H 0.5809798485305488 -0.29156165829948333 0.44225490610894946 0.0
C C 0.5455018893826126 -0.26064667156572746 0.5717811033950968 0.0
H H 0.5198818893826126 -0.22032667156572744 0.5409411033950968 0.0
C C 0.5433632540951647 -0.27710085849106614 0.6861137505995555 0.0
C C 0.5787426543587338 -0.32959341887270155 0.7325638212180806 0.0
H H 0.575922654358734 -0.34466341887270147 0.8023338212180807 0.0
C C 0.6212725101767537 -0.3805807477968481 0.6720939059578447 0.0
C C 0.6689483386036051 -0.4326715808565978 0.7081067437937637 0.0
C C 0.5024129624765964 -0.22104882039267965 0.7460972698708693 0.0
C C 0.4514896031915311 -0.17997965926944035 0.6860791171007429 0.0
F F 0.4059884483281615 -0.2100754396625958 0.6197155273816272 0.0
F F 0.47328422496197525 -0.12005610044844277 0.640038304652618 0.0
F F 0.4030061246139216 -0.14323509250107752 0.7418479441751124 0.0
N N 0.7415102020654833 -0.37863585118118664 0.21079244220402868 0.0
N N 0.8239744150458251 -0.47460639110381037 0.38222249496622895 0.0
O O 0.673134657337285 -0.46330601260419685 0.5054052707914205 0.0
O O 0.689503446072021 -0.3751066791152844 0.41738848057861916 0.0
O O 0.7306359331120096 -0.43756914817964915 0.7101152275602176 0.0
O O 0.6456509643743437 -0.4784349745850708 0.7751238062525748 0.0
Zn Zn 0.721165792013801 -0.4509297768809456 0.32507751538184587 0.0
