_cell_length_a 8.39304
_cell_length_b 22.23511
_cell_length_c 18.74218
_cell_angle_alpha 90.0
_cell_angle_beta 94.0312
_cell_angle_gamma 90.0
_symmetry_space_group_name_H-M         'P 1'
_symmetry_Int_Tables_number            1
loop_
_symmetry_equiv_pos_as_xyz
   'x, y, z'
                         
loop_
_atom_site_label
_atom_site_type_symbol
_atom_site_fract_x 
_atom_site_fract_y
_atom_site_fract_z
_atom_site_charge
Cd1 Cd1 0.315766 0.55695818 0.987122 0.0
O1 O1 0.42946 0.4598519 1.05622 0.0
O2 O2 0.20676 0.50672 1.07852 0.0
O3 O3 0.89377 0.77023 1.16124 0.0
O4 O4 0.41518 0.77133 1.26424 0.0
N1 N1 0.45557 0.62132 1.06493 0.0
N2 N2 0.64098 0.75723 1.20093 0.0
C1 C1 0.30649 0.46583 1.09023 0.0
C2 C2 0.27549 0.41993 1.14703 0.0
C3 C3 0.13291 0.42244 1.17984 0.0
H3 H3 0.058 0.4533 1.1672 0.0
C4 C4 0.09811 0.37964 1.23174 0.0
H4 H4 -0.0008 0.3802 1.2534 0.0
C5 C5 0.21101 0.33733 1.24974 0.0
C6 C6 0.35399 0.33603 1.21804 0.0
C7 C7 0.38969 0.37623 1.16533 0.0
H7 H7 0.4873 0.3742 1.1428 0.0
C8 C8 0.548611 0.78574 1.25174 0.0
C9 C9 0.79011 0.78654 1.19824 0.0
C10 C10 0.55629 0.66163 1.04303 0.0
H10 H10 0.5847 0.6589 0.9949 0.0
C11 C11 0.62369 0.70763 1.08474 0.0
H11 H11 0.6945 0.736 1.0662 0.0
C12 C12 0.58239 0.71013 1.15534 0.0
C13 C13 0.47871 0.66763 1.17964 0.0
H13 H13 0.4504 0.6678 1.2278 0.0
C14 C14 0.41799 0.62493 1.13214 0.0
H14 H14 0.3445 0.5964 1.1485 0.0
O21 O21 0.27196 0.6407819 0.90842 0.0
O22 O22 0.09036 0.62312 0.98632 0.0
O23 O23 -0.14407 0.33953 0.76383 0.0
O24 O24 0.34277 0.37602 0.67463 0.0
N21 N21 0.11027 0.36823 0.73563 0.0
N22 N22 0.22467 0.49472 0.89713 0.0
C21 C21 0.14329 0.65333 0.93603 0.0
C22 C22 0.04629 0.70663 0.90864 0.0
C23 C23 -0.09779 0.71893 0.93674 0.0
H23 H23 -0.132 0.6942 0.974 0.0
C24 C24 0.19529 0.26693 0.58854 0.0
H24 H24 0.2937 0.2758 0.5688 0.0
C25 C25 0.13909 0.30073 0.64414 0.0
C26 C26 -0.00591 0.28823 0.67124 0.0
C27 C27 0.10161 0.74253 0.85394 0.0
H27 H27 0.2021 0.7351 0.8352 0.0
C28 C28 0.21631 0.35183 0.68334 0.0
C29 C29 -0.02961 0.33254 0.72984 0.0
C30 C30 0.26208 0.50433 0.82933 0.0
H30 H30 0.3176 0.5401 0.8191 0.0
C31 C31 0.22379 0.46483 0.77384 0.0
H31 H31 0.2521 0.4733 0.7267 0.0
C32 C32 0.14259 0.41213 0.78894 0.0
C33 C33 0.09708 0.40303 0.85784 0.0
H33 H33 0.0371 0.3686 0.8697 0.0
C34 C34 0.14135 0.44522 0.90762 0.0
H34 H34 0.1096 0.4386 0.9547 0.0
_cell_length_a 8.39304
_cell_length_b 22.23511
_cell_length_c 18.74218
_cell_angle_alpha 90.0
_cell_angle_beta 94.0312
_cell_angle_gamma 90.0
_symmetry_space_group_name_H-M         'P 1'
_symmetry_Int_Tables_number            1
loop_
_symmetry_equiv_pos_as_xyz
   'x, y, z'
                         
loop_
_atom_site_label
_atom_site_type_symbol
_atom_site_fract_x 
_atom_site_fract_y
_atom_site_fract_z
_atom_site_charge
Cd1 Cd1 0.315766 0.55695818 0.987122 0.0
O1 O1 0.42946 0.4598519 1.05622 0.0
O2 O2 0.20676 0.50672 1.07852 0.0
O3 O3 0.89377 0.77023 1.16124 0.0
O4 O4 0.41518 0.77133 1.26424 0.0
N1 N1 0.45557 0.62132 1.06493 0.0
N2 N2 0.64098 0.75723 1.20093 0.0
C1 C1 0.30649 0.46583 1.09023 0.0
C2 C2 0.27549 0.41993 1.14703 0.0
C3 C3 0.13291 0.42244 1.17984 0.0
H3 H3 0.058 0.4533 1.1672 0.0
C4 C4 0.09811 0.37964 1.23174 0.0
H4 H4 -0.0008 0.3802 1.2534 0.0
C5 C5 0.21101 0.33733 1.24974 0.0
C6 C6 0.35399 0.33603 1.21804 0.0
C7 C7 0.38969 0.37623 1.16533 0.0
H7 H7 0.4873 0.3742 1.1428 0.0
C8 C8 0.548611 0.78574 1.25174 0.0
C9 C9 0.79011 0.78654 1.19824 0.0
C10 C10 0.55629 0.66163 1.04303 0.0
H10 H10 0.5847 0.6589 0.9949 0.0
C11 C11 0.62369 0.70763 1.08474 0.0
H11 H11 0.6945 0.736 1.0662 0.0
C12 C12 0.58239 0.71013 1.15534 0.0
C13 C13 0.47871 0.66763 1.17964 0.0
H13 H13 0.4504 0.6678 1.2278 0.0
C14 C14 0.41799 0.62493 1.13214 0.0
H14 H14 0.3445 0.5964 1.1485 0.0
O21 O21 0.27196 0.6407819 0.90842 0.0
O22 O22 0.09036 0.62312 0.98632 0.0
O23 O23 -0.14407 0.33953 0.76383 0.0
O24 O24 0.34277 0.37602 0.67463 0.0
N21 N21 0.11027 0.36823 0.73563 0.0
N22 N22 0.22467 0.49472 0.89713 0.0
C21 C21 0.14329 0.65333 0.93603 0.0
C22 C22 0.04629 0.70663 0.90864 0.0
C23 C23 -0.09779 0.71893 0.93674 0.0
H23 H23 -0.132 0.6942 0.974 0.0
C24 C24 0.19529 0.26693 0.58854 0.0
H24 H24 0.2937 0.2758 0.5688 0.0
C25 C25 0.13909 0.30073 0.64414 0.0
C26 C26 -0.00591 0.28823 0.67124 0.0
C27 C27 0.10161 0.74253 0.85394 0.0
H27 H27 0.2021 0.7351 0.8352 0.0
C28 C28 0.21631 0.35183 0.68334 0.0
C29 C29 -0.02961 0.33254 0.72984 0.0
C30 C30 0.26208 0.50433 0.82933 0.0
H30 H30 0.3176 0.5401 0.8191 0.0
C31 C31 0.22379 0.46483 0.77384 0.0
H31 H31 0.2521 0.4733 0.7267 0.0
C32 C32 0.14259 0.41213 0.78894 0.0
C33 C33 0.09708 0.40303 0.85784 0.0
H33 H33 0.0371 0.3686 0.8697 0.0
C34 C34 0.14135 0.44522 0.90762 0.0
H34 H34 0.1096 0.4386 0.9547 0.0
_cell_length_a 8.39304
_cell_length_b 22.23511
_cell_length_c 18.74218
_cell_angle_alpha 90.0
_cell_angle_beta 94.0312
_cell_angle_gamma 90.0
_symmetry_space_group_name_H-M         'P 1'
_symmetry_Int_Tables_number            1
loop_
_symmetry_equiv_pos_as_xyz
   'x, y, z'
                         
loop_
_atom_site_label
_atom_site_type_symbol
_atom_site_fract_x 
_atom_site_fract_y
_atom_site_fract_z
_atom_site_charge
Cd1 Cd1 0.315766 0.55695818 0.987122 0.0
O1 O1 0.42946 0.4598519 1.05622 0.0
O2 O2 0.20676 0.50672 1.07852 0.0
O3 O3 0.89377 0.77023 1.16124 0.0
O4 O4 0.41518 0.77133 1.26424 0.0
N1 N1 0.45557 0.62132 1.06493 0.0
N2 N2 0.64098 0.75723 1.20093 0.0
C1 C1 0.30649 0.46583 1.09023 0.0
C2 C2 0.27549 0.41993 1.14703 0.0
C3 C3 0.13291 0.42244 1.17984 0.0
H3 H3 0.058 0.4533 1.1672 0.0
C4 C4 0.09811 0.37964 1.23174 0.0
H4 H4 -0.0008 0.3802 1.2534 0.0
C5 C5 0.21101 0.33733 1.24974 0.0
C6 C6 0.35399 0.33603 1.21804 0.0
C7 C7 0.38969 0.37623 1.16533 0.0
H7 H7 0.4873 0.3742 1.1428 0.0
C8 C8 0.548611 0.78574 1.25174 0.0
C9 C9 0.79011 0.78654 1.19824 0.0
C10 C10 0.55629 0.66163 1.04303 0.0
H10 H10 0.5847 0.6589 0.9949 0.0
C11 C11 0.62369 0.70763 1.08474 0.0
H11 H11 0.6945 0.736 1.0662 0.0
C12 C12 0.58239 0.71013 1.15534 0.0
C13 C13 0.47871 0.66763 1.17964 0.0
H13 H13 0.4504 0.6678 1.2278 0.0
C14 C14 0.41799 0.62493 1.13214 0.0
H14 H14 0.3445 0.5964 1.1485 0.0
O21 O21 0.27196 0.6407819 0.90842 0.0
O22 O22 0.09036 0.62312 0.98632 0.0
O23 O23 -0.14407 0.33953 0.76383 0.0
O24 O24 0.34277 0.37602 0.67463 0.0
N21 N21 0.11027 0.36823 0.73563 0.0
N22 N22 0.22467 0.49472 0.89713 0.0
C21 C21 0.14329 0.65333 0.93603 0.0
C22 C22 0.04629 0.70663 0.90864 0.0
C23 C23 -0.09779 0.71893 0.93674 0.0
H23 H23 -0.132 0.6942 0.974 0.0
C24 C24 0.19529 0.26693 0.58854 0.0
H24 H24 0.2937 0.2758 0.5688 0.0
C25 C25 0.13909 0.30073 0.64414 0.0
C26 C26 -0.00591 0.28823 0.67124 0.0
C27 C27 0.10161 0.74253 0.85394 0.0
H27 H27 0.2021 0.7351 0.8352 0.0
C28 C28 0.21631 0.35183 0.68334 0.0
C29 C29 -0.02961 0.33254 0.72984 0.0
C30 C30 0.26208 0.50433 0.82933 0.0
H30 H30 0.3176 0.5401 0.8191 0.0
C31 C31 0.22379 0.46483 0.77384 0.0
H31 H31 0.2521 0.4733 0.7267 0.0
C32 C32 0.14259 0.41213 0.78894 0.0
C33 C33 0.09708 0.40303 0.85784 0.0
H33 H33 0.0371 0.3686 0.8697 0.0
C34 C34 0.14135 0.44522 0.90762 0.0
H34 H34 0.1096 0.4386 0.9547 0.0
