_cell_length_a 7.01484
_cell_length_b 7.01484
_cell_length_c 7.56557
_cell_angle_alpha 90.0
_cell_angle_beta 90.0
_cell_angle_gamma 90.0
_symmetry_space_group_name_H-M         'P 1'
_symmetry_Int_Tables_number            1
loop_
_symmetry_equiv_pos_as_xyz
   'x, y, z'
                         
loop_
_atom_site_label
_atom_site_type_symbol
_atom_site_fract_x 
_atom_site_fract_y
_atom_site_fract_z
_atom_site_charge
N N 0.5032139635023339 0.2112213009114639 0.5116462542055666 0.0
C C 0.464938410934496 0.14401316239674006 0.3696166627542884 0.0
H H 0.464938410934496 0.21159316239674006 0.2684348627542884 0.0
Ni Ni 0.5024697737362651 0.4399671569191112 0.4807633858072405 0.0
F F 0.511217979927437 0.5039471080697626 0.2119798536533769 0.0
F F 0.29366935298674607 0.33806820739832183 0.02906343904894569 0.0
Si Si 0.5339307415979192 0.5155894993706034 0.026223970429213397 0.0
N N -0.16099964831243188 0.4770255584002779 0.48249771716209167 0.0
C C -0.08790146167174989 0.4853904873965169 0.34202873344830503 0.0
H H -0.1554814616717499 0.4853904873965169 0.24084693344830502 0.0
F F -0.34570861283575355 0.30355943607695374 -0.021748960922445708 0.0
N N -0.49804057844234206 -0.2115538244763544 0.4525776644305782 0.0
C C -0.5298560315900338 -0.10282458862461681 0.2812769931765867 0.0
H H -0.5298560315900338 -0.17040458862461677 0.1800951931765867 0.0
F F -0.3480528756793787 -0.29500272106152453 -0.03994977164291714 0.0
N N 0.17580153941048934 -0.49626393567176136 0.503177980901113 0.0
C C 0.09288605913204036 -0.49607877885845203 0.37590851808547177 0.0
H H 0.16046605913204035 -0.49607877885845203 0.2747267180854717 0.0
F F 0.3154049250511093 -0.34320399620867054 -0.008992082116547019 0.0
C C -0.5251942139567694 -0.024082440082396926 -0.3483295439815849 0.0
H H -0.5251942139567694 -0.09166244008239692 -0.24714774398158487 0.0
F F -0.5006748610304018 -0.5143547419900759 -0.21679752654088028 0.0
C C 0.11142424609770216 -0.5178417141335928 -0.3895433062412109 0.0
H H 0.17900424609770213 -0.5178417141335928 -0.288361506241211 0.0
C C 0.5398575813115012 0.07793026981659029 -0.37249785465291124 0.0
H H 0.5398575813115012 0.1455102698165903 -0.27131605465291125 0.0
C C -0.08466452368645534 0.4843388577334829 -0.3571102578315635 0.0
H H -0.15224452368645533 0.4843388577334829 -0.2559284578315635 0.0
