_cell_length_a 7.01484
_cell_length_b 7.01484
_cell_length_c 7.56557
_cell_angle_alpha 90.0
_cell_angle_beta 90.0
_cell_angle_gamma 90.0
_symmetry_space_group_name_H-M         'P 1'
_symmetry_Int_Tables_number            1
loop_
_symmetry_equiv_pos_as_xyz
   'x, y, z'
                         
loop_
_atom_site_label
_atom_site_type_symbol
_atom_site_fract_x 
_atom_site_fract_y
_atom_site_fract_z
_atom_site_charge
N N 0.5580283193422302 0.2056983289557443 0.49395150571997 0.0
C C 0.48837458221498997 0.09481914232410646 0.37905366112109995 0.0
H H 0.48837458221498997 0.16239914232410646 0.27787186112109996 0.0
Ni Ni 0.473733939634283 0.5260122910528475 0.4865264324769562 0.0
F F 0.4722374220246926 0.4840286458341891 0.19335642853979906 0.0
F F 0.31492000404797355 0.2819078823957203 0.0404430643677865 0.0
Si Si 0.5219248547149421 0.5422814247329958 0.04183829577330038 0.0
N N -0.1910449891229137 0.5187795837283364 0.5181306018176123 0.0
C C -0.09726584342419362 0.46204529173446596 0.34285506148009226 0.0
H H -0.16484584342419362 0.46204529173446596 0.24167326148009227 0.0
F F -0.30145514842409527 0.33936347925215665 -0.03647281923756225 0.0
N N -0.5153474227024774 -0.23630689129078086 0.5084729677919839 0.0
C C -0.5512175749402118 -0.07327265189879044 0.37133648636639405 0.0
H H -0.5512175749402118 -0.14085265189879043 0.27015468636639406 0.0
F F -0.24277080244846344 -0.33887507565657843 9.995029843832787e-06 0.0
N N 0.18205922338917083 -0.46367389048157315 0.4595919529693095 0.0
C C 0.0879871896017575 -0.5606618875059993 0.32971881852254836 0.0
H H 0.1555671896017575 -0.5606618875059993 0.22853701852254843 0.0
F F 0.3879663819921297 -0.3446155212728535 0.00958269637966949 0.0
C C -0.5039087745431765 -0.09930799385713025 -0.3900122025466216 0.0
H H -0.5039087745431765 -0.1668879938571302 -0.2888304025466217 0.0
F F -0.43710941926671304 -0.5062314934666918 -0.2365155273861841 0.0
C C 0.09637140203007585 -0.5112210586141388 -0.4144685751155187 0.0
H H 0.16395140203007583 -0.5112210586141388 -0.3132867751155187 0.0
C C 0.5287883383491513 0.13175732509113627 -0.35599727468087144 0.0
H H 0.5287883383491513 0.19933732509113627 -0.25481547468087146 0.0
C C -0.1170496582350998 0.5140041643567934 -0.39764034515057695 0.0
H H -0.1846296582350998 0.5140041643567934 -0.296458545150577 0.0
