_cell_length_a 7.01484
_cell_length_b 7.01484
_cell_length_c 7.56557
_cell_angle_alpha 90.0
_cell_angle_beta 90.0
_cell_angle_gamma 90.0
_symmetry_space_group_name_H-M         'P 1'
_symmetry_Int_Tables_number            1
loop_
_symmetry_equiv_pos_as_xyz
   'x, y, z'
                         
loop_
_atom_site_label
_atom_site_type_symbol
_atom_site_fract_x 
_atom_site_fract_y
_atom_site_fract_z
_atom_site_charge
N N 0.47503459372996054 0.21978808080879417 0.5070687103989885 0.0
C C 0.5025382314493045 0.09140553130263919 0.4071493666968536 0.0
H H 0.5025382314493045 0.15898553130263918 0.30596756669685354 0.0
Ni Ni 0.46962338478547816 0.47055375881929085 0.4850230515541104 0.0
F F 0.48640191497314833 0.5121498908496139 0.21568563261039933 0.0
F F 0.3483442993757403 0.3382838043323644 -0.00473003479509178 0.0
Si Si 0.4674503611154566 0.5151117451736908 0.03641414604061644 0.0
N N -0.17655169715124167 0.4960639233838459 0.5081986873797709 0.0
C C -0.04568093406590631 0.45245902238148733 0.36519515259588103 0.0
H H -0.1132609340659063 0.45245902238148733 0.2640133525958811 0.0
F F -0.36603790015874077 0.35179916278805046 0.00023305105202552523 0.0
N N -0.5365342367372719 -0.2171370581360965 0.5309921758851571 0.0
C C -0.5115661512637281 -0.049796815152055814 0.3751101801542937 0.0
H H -0.5115661512637281 -0.1173768151520558 0.2739283801542937 0.0
F F -0.38288736419572084 -0.32612320960438673 -0.006750453634338275 0.0
N N 0.2330120655849371 -0.5183474944067883 0.5273400041656154 0.0
C C 0.09708660044359077 -0.46757239360905906 0.38997832206069927 0.0
H H 0.16466660044359077 -0.46757239360905906 0.28879652206069933 0.0
F F 0.27949052851376194 -0.38583167916906486 -0.03973219000501492 0.0
C C -0.5003725760998482 -0.09406717614418944 -0.3959057947389059 0.0
H H -0.5003725760998482 -0.16164717614418941 -0.294723994738906 0.0
F F -0.535039356935283 -0.4698279673506132 -0.22062896101622867 0.0
C C 0.11013556271628437 -0.5004122418953921 -0.27978245495729476 0.0
H H 0.17771556271628436 -0.5004122418953921 -0.17860065495729477 0.0
C C 0.404690864297622 0.10043111724913878 -0.3939055610351688 0.0
H H 0.404690864297622 0.16801111724913875 -0.29272376103516884 0.0
C C -0.05765846287036707 0.4935040758124556 -0.34526685071639684 0.0
H H -0.12523846287036705 0.4935040758124556 -0.24408505071639686 0.0
