_cell_length_a 7.01484
_cell_length_b 7.01484
_cell_length_c 7.56557
_cell_angle_alpha 90.0
_cell_angle_beta 90.0
_cell_angle_gamma 90.0
_symmetry_space_group_name_H-M         'P 1'
_symmetry_Int_Tables_number            1
loop_
_symmetry_equiv_pos_as_xyz
   'x, y, z'
                         
loop_
_atom_site_label
_atom_site_type_symbol
_atom_site_fract_x 
_atom_site_fract_y
_atom_site_fract_z
_atom_site_charge
N N 0.46017029964390227 0.24634658285293445 0.5130543167748778 0.0
C C 0.4919437212075201 0.06032098843560888 0.3365989622289993 0.0
H H 0.4919437212075201 0.12790098843560885 0.23541716222899928 0.0
Ni Ni 0.5461064053607843 0.498416509481685 0.49288537160812307 0.0
F F 0.5524792984260102 0.48369783085110896 0.23188371398365473 0.0
F F 0.3441241298292242 0.29605178221859046 0.008746432341581449 0.0
Si Si 0.5040508246903076 0.4882104564320773 -0.0277779132711758 0.0
N N -0.22015219068658812 0.5077684575790126 0.5354572533583667 0.0
C C -0.1342958652321721 0.4302599388770207 0.4075716601135778 0.0
H H -0.20187586523217207 0.4302599388770207 0.3063898601135778 0.0
F F -0.2976972442122691 0.3517042506236384 -0.024195362762491974 0.0
N N -0.4993069890273534 -0.19221471458466227 0.4539401493439776 0.0
C C -0.529293511691272 -0.1571201669061884 0.36803432155726773 0.0
H H -0.529293511691272 -0.22470016690618835 0.26685252155726774 0.0
F F -0.35428525013877243 -0.28730952136540894 -0.04015655892496395 0.0
N N 0.22113040294674727 -0.509151594136799 0.5482072746199348 0.0
C C 0.07755516017252373 -0.43107372073463296 0.3627715090945648 0.0
H H 0.14513516017252373 -0.43107372073463296 0.2615897090945648 0.0
F F 0.2811005896921447 -0.32907198756964123 0.03471682863540489 0.0
C C -0.44178266189456583 -0.09244944909497974 -0.3624814905104821 0.0
H H -0.44178266189456583 -0.1600294490949797 -0.2612996905104821 0.0
F F -0.5198659921145536 -0.48853285134886953 -0.1854847356508417 0.0
C C 0.07467440229526538 -0.5081307671102199 -0.34906345003847133 0.0
H H 0.14225440229526537 -0.5081307671102199 -0.2478816500384714 0.0
C C 0.494141702561601 0.056351372873668246 -0.37713374628101787 0.0
H H 0.494141702561601 0.1239313728736682 -0.2759519462810179 0.0
C C -0.102190863658744 0.5199486697489241 -0.3468479168805959 0.0
H H -0.16977086365874397 0.5199486697489241 -0.24566611688059592 0.0
