_cell_length_a 7.01484
_cell_length_b 7.01484
_cell_length_c 7.56557
_cell_angle_alpha 90.0
_cell_angle_beta 90.0
_cell_angle_gamma 90.0
_symmetry_space_group_name_H-M         'P 1'
_symmetry_Int_Tables_number            1
loop_
_symmetry_equiv_pos_as_xyz
   'x, y, z'
                         
loop_
_atom_site_label
_atom_site_type_symbol
_atom_site_fract_x 
_atom_site_fract_y
_atom_site_fract_z
_atom_site_charge
N N 0.5411660869197504 0.24174869343988922 0.5067507057005551 0.0
C C 0.4894807181831876 0.1314015952411686 0.35027555047762776 0.0
H H 0.4894807181831876 0.19898159524116857 0.2490937504776278 0.0
Ni Ni 0.5327552058454371 0.4975790769949812 0.4727473445564186 0.0
F F 0.46827413069820795 0.49993985402131613 0.22323420992982052 0.0
F F 0.28547873508785143 0.3791779938623635 -0.011814281878388884 0.0
Si Si 0.473943525522385 0.4722759193055898 -0.012359884910267927 0.0
N N -0.17918907344156937 0.4598400583822852 0.5069017254659876 0.0
C C -0.13960436270666188 0.5621081488744335 0.34547242332763706 0.0
H H -0.20718436270666185 0.5621081488744335 0.24429062332763707 0.0
F F -0.2888662045702714 0.44499361947307625 -0.029156237180546104 0.0
N N -0.5977045983223181 -0.17178868083641458 0.526397688318322 0.0
C C -0.5517657479441858 -0.08260435250752514 0.327386086564698 0.0
H H -0.5517657479441858 -0.15018435250752513 0.22620428656469801 0.0
F F -0.28030265742809113 -0.277464951518946 -0.05343652424759726 0.0
N N 0.17678531967793304 -0.5137255497200823 0.4539716082771644 0.0
C C 0.10171991610376102 -0.5202993720811144 0.3462148011018538 0.0
H H 0.16929991610376102 -0.5202993720811144 0.2450330011018539 0.0
F F 0.34934049156946345 -0.33236677538827 0.05609635258554437 0.0
C C -0.5344492914232394 -0.1253963916558864 -0.36647810362595173 0.0
H H -0.5344492914232394 -0.19297639165588637 -0.26529630362595175 0.0
F F -0.5031845694685818 -0.5526844611381213 -0.21015477075048944 0.0
C C 0.04095652393378482 -0.46469494649461685 -0.35687433983121397 0.0
H H 0.10853652393378481 -0.46469494649461685 -0.2556925398312139 0.0
C C 0.5244822615908585 0.05614045167320093 -0.3092530047003401 0.0
H H 0.5244822615908585 0.1237204516732009 -0.20807120470034007 0.0
C C -0.07016083513540065 0.5239899675223234 -0.4086039777098848 0.0
H H -0.13774083513540064 0.5239899675223234 -0.3074221777098848 0.0
