_cell_length_a 7.01484
_cell_length_b 7.01484
_cell_length_c 7.56557
_cell_angle_alpha 90.0
_cell_angle_beta 90.0
_cell_angle_gamma 90.0
_symmetry_space_group_name_H-M         'P 1'
_symmetry_Int_Tables_number            1
loop_
_symmetry_equiv_pos_as_xyz
   'x, y, z'
                         
loop_
_atom_site_label
_atom_site_type_symbol
_atom_site_fract_x 
_atom_site_fract_y
_atom_site_fract_z
_atom_site_charge
N N 0.5236876872208496 0.19434829323939587 0.5015478924742962 0.0
C C 0.5470116294963727 0.0586175426882375 0.36547066305757997 0.0
H H 0.5470116294963727 0.1261975426882375 0.26428886305758 0.0
Ni Ni 0.5159597732949294 0.48008037963787625 0.48700561148336613 0.0
F F 0.46078386832988755 0.4909228099258051 0.19268117378903965 0.0
F F 0.3231484453499813 0.30754413710412815 0.0035472035231397165 0.0
Si Si 0.5179504763042184 0.47176299376886166 0.010890811955282551 0.0
N N -0.2247708127586866 0.5308871721208437 0.46604035358495893 0.0
C C -0.11371781621293724 0.4054859666803855 0.408943230470705 0.0
H H -0.18129781621293722 0.4054859666803855 0.307761430470705 0.0
F F -0.35746229868677154 0.3218430932659737 -0.02752845886373168 0.0
N N -0.5115091464505672 -0.20415610804487333 0.5064444691442852 0.0
C C -0.4947038224478172 -0.11903970640893023 0.3473241265154973 0.0
H H -0.4947038224478172 -0.18661970640893022 0.2461423265154974 0.0
F F -0.3621420080095391 -0.37645031382672184 -0.02568039814680391 0.0
N N 0.15673489951650757 -0.49297857879245394 0.5319183472850292 0.0
C C 0.15155491130630097 -0.5198938338996414 0.37429698959826824 0.0
H H 0.219134911306301 -0.5198938338996414 0.27311518959826825 0.0
F F 0.31603993909429445 -0.3812963942305768 -0.03389130205350934 0.0
C C -0.4711538799675053 -0.02718754070750894 -0.3323365986817447 0.0
H H -0.4711538799675053 -0.09476754070750894 -0.23115479868174466 0.0
F F -0.5385515240227685 -0.4961531979279079 -0.1781227906711649 0.0
C C 0.08936414429224666 -0.5479048665292178 -0.35629711957299676 0.0
H H 0.15694414429224662 -0.5479048665292178 -0.25511531957299677 0.0
C C 0.5118819231723251 0.10101523061242071 -0.3488767326671778 0.0
H H 0.5118819231723251 0.1685952306124207 -0.24769493266717782 0.0
C C -0.12563326040568448 0.5472027597810964 -0.37711762739576565 0.0
H H -0.19321326040568448 0.5472027597810964 -0.2759358273957656 0.0
