_cell_length_a 7.01484
_cell_length_b 7.01484
_cell_length_c 7.56557
_cell_angle_alpha 90.0
_cell_angle_beta 90.0
_cell_angle_gamma 90.0
_symmetry_space_group_name_H-M         'P 1'
_symmetry_Int_Tables_number            1
loop_
_symmetry_equiv_pos_as_xyz
   'x, y, z'
                         
loop_
_atom_site_label
_atom_site_type_symbol
_atom_site_fract_x 
_atom_site_fract_y
_atom_site_fract_z
_atom_site_charge
N N 0.5023675698504675 0.2339594293204597 0.5090144336474709 0.0
C C 0.47358784942715415 0.130484304216793 0.35026429852942426 0.0
H H 0.47358784942715415 0.19806430421679297 0.2490824985294243 0.0
Ni Ni 0.4823464827043593 0.5163130069200208 0.45516212020287966 0.0
F F 0.5316110000492033 0.5184277302949952 0.22529734774961221 0.0
F F 0.33905849658921855 0.33149529947780837 0.038001348048523384 0.0
Si Si 0.5177422994741406 0.491175046445916 -0.0325733379828512 0.0
N N -0.19193446345950155 0.5548470181831386 0.4456710905732609 0.0
C C -0.16476694572930262 0.4701000451258757 0.3649706336526164 0.0
H H -0.2323469457293026 0.4701000451258757 0.26378883365261646 0.0
F F -0.28195752848426714 0.3143015563001071 -0.010674740422565008 0.0
N N -0.49913262355211396 -0.19964138050857963 0.49538602280881994 0.0
C C -0.49437781803897934 -0.16994585467231058 0.31391770476893444 0.0
H H -0.49437781803897934 -0.23752585467231058 0.21273590476893445 0.0
F F -0.3470539564449692 -0.3105558143424892 -0.04408553470525953 0.0
N N 0.22041159078011693 -0.5204021939144857 0.45266200763526027 0.0
C C 0.11376008450803698 -0.5303516341285216 0.34752768027809705 0.0
H H 0.18134008450803699 -0.5303516341285216 0.24634588027809703 0.0
F F 0.31698053154708805 -0.29266646117175077 0.007344679935597082 0.0
C C -0.4543576798001766 -0.08520728337950652 -0.3998297238800824 0.0
H H -0.4543576798001766 -0.1527872833795065 -0.2986479238800824 0.0
F F -0.46644783039739174 -0.5470327572487618 -0.1957356134426382 0.0
C C 0.06240047658315275 -0.44844033032074176 -0.35734808228732895 0.0
H H 0.12998047658315273 -0.44844033032074176 -0.2561662822873289 0.0
C C 0.45657536043142866 0.098653888364405 -0.28683163401607487 0.0
H H 0.45657536043142866 0.16623388836440497 -0.18564983401607485 0.0
C C -0.10622371107835309 0.5519431850921342 -0.3708666192118386 0.0
H H -0.17380371107835307 0.5519431850921342 -0.2696848192118386 0.0
