_cell_length_a 7.01484
_cell_length_b 7.01484
_cell_length_c 7.56557
_cell_angle_alpha 90.0
_cell_angle_beta 90.0
_cell_angle_gamma 90.0
_symmetry_space_group_name_H-M         'P 1'
_symmetry_Int_Tables_number            1
loop_
_symmetry_equiv_pos_as_xyz
   'x, y, z'
                         
loop_
_atom_site_label
_atom_site_type_symbol
_atom_site_fract_x 
_atom_site_fract_y
_atom_site_fract_z
_atom_site_charge
N N 0.5419196249541818 0.22604260021891742 0.4455989332821646 0.0
C C 0.45642113875061757 0.1345183147270144 0.4026445401638416 0.0
H H 0.45642113875061757 0.20209831472701437 0.30146274016384156 0.0
Ni Ni 0.491402981043063 0.5215992086086786 0.4871071455430929 0.0
F F 0.469078687653443 0.5191918797818802 0.20552150938400324 0.0
F F 0.33727464872546736 0.33977164103615093 -0.023740042238904024 0.0
Si Si 0.5123677400968595 0.49507335551576814 0.029880300590903377 0.0
N N -0.21145319301817142 0.5229239878257143 0.5332024710380094 0.0
C C -0.09410652309453156 0.43773769123473016 0.3926570342490802 0.0
H H -0.16168652309453152 0.43773769123473016 0.29147523424908023 0.0
F F -0.36442024545072316 0.2956815261377907 -0.027281916961606523 0.0
N N -0.5130198062253916 -0.17312319962255793 0.485596050344403 0.0
C C -0.5028549303329173 -0.07657016421491218 0.3770718142025962 0.0
H H -0.5028549303329173 -0.14415016421491217 0.27589001420259623 0.0
F F -0.3441922566688016 -0.3347285619330011 -0.024428448238229202 0.0
N N 0.257111079404315 -0.4231952676402519 0.5293418626684057 0.0
C C 0.06577991151066906 -0.5057563812132431 0.3999959439461998 0.0
H H 0.13335991151066906 -0.5057563812132431 0.2988141439461998 0.0
F F 0.3320073753321991 -0.3421188676668225 0.025566289985272824 0.0
C C -0.5027853881794677 -0.09523095119300427 -0.30250478831715716 0.0
H H -0.5027853881794677 -0.16281095119300426 -0.20132298831715723 0.0
F F -0.4683556424167478 -0.45321685992893257 -0.2312320622911678 0.0
C C 0.10415455375822327 -0.533991235703226 -0.33054545982104483 0.0
H H 0.17173455375822325 -0.533991235703226 -0.22936365982104484 0.0
C C 0.5028490167021918 0.10227154281614179 -0.385542133082154 0.0
H H 0.5028490167021918 0.16985154281614176 -0.28436033308215397 0.0
C C -0.07741912854724026 0.48778601611106503 -0.3653015323826886 0.0
H H -0.14499912854724026 0.48778601611106503 -0.2641197323826886 0.0
