_cell_length_a 7.01484
_cell_length_b 7.01484
_cell_length_c 7.56557
_cell_angle_alpha 90.0
_cell_angle_beta 90.0
_cell_angle_gamma 90.0
_symmetry_space_group_name_H-M         'P 1'
_symmetry_Int_Tables_number            1
loop_
_symmetry_equiv_pos_as_xyz
   'x, y, z'
                         
loop_
_atom_site_label
_atom_site_type_symbol
_atom_site_fract_x 
_atom_site_fract_y
_atom_site_fract_z
_atom_site_charge
N N 0.49878142705375256 0.25108871227751933 0.5650563247873044 0.0
C C 0.47920761657414535 0.03424719009847839 0.3842532256291041 0.0
H H 0.47920761657414535 0.10182719009847839 0.2830714256291041 0.0
Ni Ni 0.47321755332336035 0.49752835965800773 0.47226581170268656 0.0
F F 0.43356007593445867 0.46876530361156016 0.20920192585686592 0.0
F F 0.29862575449644013 0.34641379098965364 -0.023563933963529682 0.0
Si Si 0.5506280166995359 0.5239501506026812 -0.06543408113227828 0.0
N N -0.18179871355306507 0.5199713716301257 0.4549155216914974 0.0
C C -0.12834704511855968 0.48735532590794806 0.31028629141324837 0.0
H H -0.19592704511855963 0.48735532590794806 0.20910449141324833 0.0
F F -0.3344710220254179 0.30777222761690753 0.005988270116615508 0.0
N N -0.4701476397639268 -0.2403076749471062 0.4940586428030977 0.0
C C -0.46868870289126413 -0.07883645015802235 0.3917166098694688 0.0
H H -0.46868870289126413 -0.14641645015802232 0.29053480986946884 0.0
F F -0.360143891402846 -0.36953461187134007 -0.02532417414747204 0.0
N N 0.20957240862546161 -0.49252725028073047 0.5104808389056362 0.0
C C 0.10623711026791591 -0.5237403939166532 0.4173517753997394 0.0
H H 0.1738171102679159 -0.5237403939166532 0.31616997539973934 0.0
F F 0.3335266896550786 -0.32483169686261704 -0.0347041381112249 0.0
C C -0.5111250111911122 -0.09348936991940633 -0.3614970815028594 0.0
H H -0.5111250111911122 -0.1610693699194063 -0.26031528150285943 0.0
F F -0.5030814274697047 -0.5300308972083212 -0.24281742260773145 0.0
C C 0.12544784514721616 -0.4991216933016053 -0.3423230387817919 0.0
H H 0.19302784514721616 -0.4991216933016053 -0.24114123878179183 0.0
C C 0.5126111559887083 0.13557664496728267 -0.37768602799761386 0.0
H H 0.5126111559887083 0.20315664496728264 -0.27650422799761387 0.0
C C -0.0712756599241153 0.5207403977027087 -0.3835236111927715 0.0
H H -0.13885565992411528 0.5207403977027087 -0.2823418111927715 0.0
