_cell_length_a 11.045
_cell_length_b 11.045
_cell_length_c 8.163
_cell_angle_alpha 90.0
_cell_angle_beta 90.0
_cell_angle_gamma 90.0
_symmetry_space_group_name_H-M         'P 1'
_symmetry_Int_Tables_number            1
loop_
_symmetry_equiv_pos_as_xyz
   'x, y, z'
                         
loop_
_atom_site_label
_atom_site_type_symbol
_atom_site_fract_x 
_atom_site_fract_y
_atom_site_fract_z
_atom_site_charge
C C 0.2528822442565208 0.43747415536452533 0.40831746313796596 0.0
C C 0.10958410609799188 0.4930378410474326 0.3763261520540092 0.0
C C 0.7020986914727352 0.5675057842918129 0.4341304225715751 0.0
C C 0.8637111896120055 0.5433645862368499 0.3437912372834781 0.0
C C 0.5045276071174754 0.26640331939221107 0.37556664896145714 0.0
C C 0.5261166015061628 0.14972317162063223 0.3631232843689918 0.0
C C 0.4406026242952937 0.7475178378926748 0.36655531921864043 0.0
C C 0.4631068560065987 0.8899863066627212 0.34136587172992083 0.0
C C 0.7320813136234919 0.42278118994941755 0.6356477338065839 0.0
C C 0.9442675257231641 0.44781820051660803 0.6628458187629345 0.0
C C 0.25012974333695115 0.5372715857047132 0.6909107696549113 0.0
C C 0.07581414873120876 0.5668746701077664 0.5306011283931266 0.0
C C 0.5003836357132959 0.25802153635722397 0.6034570931372323 0.0
C C 0.48916113511449094 0.14167812297008878 0.6722277144427836 0.0
C C 0.5365758638107762 0.7444945622658599 0.6237051689330132 0.0
C C 0.5062146955532658 0.8775405504641778 0.5989409425978709 0.0
C C 0.0431062395256634 0.501696226531308 0.5174642905472533 0.0
C C 0.950078539405317 0.5180091065767385 0.5039530808837274 0.0
C C 0.49924025991871335 0.029539759295646437 0.5683898190145323 0.0
C C 0.49836636304616977 0.970444633036459 0.4706737106077149 0.0
H H 0.3070512442565208 0.4055101553645253 0.30501446313796593 0.0
H H 0.0629121060979919 0.4569548410474326 0.2693961520540092 0.0
H H 0.6479296914727353 0.5994697842918129 0.330827422571575 0.0
H H 0.9103831896120054 0.5794475862368501 0.2368612372834781 0.0
H H 0.5364916071174755 0.32057231939221104 0.2722636489614571 0.0
H H 0.5621996015061629 0.10305117162063224 0.2561932843689918 0.0
H H 0.40863862429529363 0.6933488378926747 0.2632523192186404 0.0
H H 0.42702385600659876 0.9366583066627211 0.2344358717299208 0.0
H H 0.677912313623492 0.3908171899494175 0.7389507338065838 0.0
H H 0.990939525723164 0.41173520051660806 0.7697758187629344 0.0
H H 0.3042987433369511 0.5692355857047132 0.7942137696549112 0.0
H H 0.029142148731208784 0.6029576701077665 0.6375311283931265 0.0
H H 0.46841963571329576 0.31219053635722394 0.7067600931372322 0.0
H H 0.45307813511449097 0.09500612297008879 0.7791577144427836 0.0
H H 0.5685398638107763 0.6903255622658598 0.7270081689330132 0.0
H H 0.5422976955532659 0.9242125504641777 0.7058709425978709 0.0
Cu Cu 0.4904022811145703 0.505587538010399 0.49348914561926366 0.0
Si Si 0.5141541201659967 0.5321033491966777 0.03679555902950271 0.0
F F 0.46061355946710586 0.46048083444908927 0.7581603017510847 0.0
F F 0.47025569461953537 0.5018220142501548 0.2593045839660653 0.0
F F 0.3854021724008294 0.3833048564213701 0.026367763457595454 0.0
F F 0.6397757830435996 0.6046167698725424 -0.002139909294007827 0.0
F F 0.6213226865278714 0.38623288930663113 -0.007646385816086904 0.0
F F 0.41931827608736466 0.6042855745412316 -0.04531645742558679 0.0
N N 0.3010205299356423 0.5229624573047427 0.45130527833561046 0.0
N N 0.6923138617236221 0.47957534429547827 0.5042200782783545 0.0
N N 0.5229638778639691 0.2935125948817088 0.506273874828324 0.0
N N 0.5253539147789488 0.6963250597489657 0.5007266800905131 0.0
