_cell_length_a 11.045
_cell_length_b 11.045
_cell_length_c 8.163
_cell_angle_alpha 90.0
_cell_angle_beta 90.0
_cell_angle_gamma 90.0
_symmetry_space_group_name_H-M         'P 1'
_symmetry_Int_Tables_number            1
loop_
_symmetry_equiv_pos_as_xyz
   'x, y, z'
                         
loop_
_atom_site_label
_atom_site_type_symbol
_atom_site_fract_x 
_atom_site_fract_y
_atom_site_fract_z
_atom_site_charge
C C 0.24832212546082114 0.43550967605240687 0.3711730026110381 0.0
C C 0.14256532583940842 0.46100557836026207 0.3850554451862445 0.0
C C 0.7649280451358664 0.4986082802442652 0.33789947362303274 0.0
C C 0.9091725753735642 0.5756466900782625 0.375357635214118 0.0
C C 0.5863335600226712 0.2564829750020316 0.34181754751494353 0.0
C C 0.5204786233964724 0.13682319766394396 0.33391283614946315 0.0
C C 0.48162311145849024 0.715098956877248 0.38989062848757 0.0
C C 0.43294638684946124 0.8787339802420834 0.3686520746914914 0.0
C C 0.7206661180943921 0.4660058495617153 0.7031658959473207 0.0
C C 0.8664683719888536 0.49453089905501935 0.6742925900589871 0.0
C C 0.27726335832675125 0.5677202520439215 0.6170156439032665 0.0
C C 0.11281346543974294 0.5385593599732725 0.6263564580931879 0.0
C C 0.42111424701612193 0.23821506277329751 0.5996576698542547 0.0
C C 0.5014144606357073 0.06601036016628142 0.5759351782234572 0.0
C C 0.5116871238820014 0.7375632357538044 0.6361774804815374 0.0
C C 0.598688204842684 0.8406612126587238 0.6156461473400233 0.0
C C 0.047707743744628134 0.520594369694761 0.5473457720237077 0.0
C C 0.9355751384857782 0.48869942975211994 0.48903828415127043 0.0
C C 0.532262398913351 0.05912519195192682 0.49122886854685927 0.0
C C 0.4733607648560458 0.9531158850086368 0.4488105918089741 0.0
H H 0.3024911254608212 0.4035456760524068 0.26787000261103805 0.0
H H 0.09589332583940843 0.42492257836026215 0.2781254451862446 0.0
H H 0.7107590451358665 0.5305722802442653 0.23459647362303268 0.0
H H 0.9558445753735642 0.6117296900782626 0.268427635214118 0.0
H H 0.6182975600226712 0.3106519750020316 0.23851454751494347 0.0
H H 0.5565616233964725 0.09015119766394397 0.22698283614946316 0.0
H H 0.44965911145849013 0.660929956877248 0.28658762848756997 0.0
H H 0.39686338684946126 0.9254059802420833 0.2617220746914914 0.0
H H 0.666497118094392 0.43404184956171526 0.8064688959473207 0.0
H H 0.9131403719888536 0.45844789905501937 0.7812225900589871 0.0
H H 0.3314323583267512 0.5996842520439216 0.7203186439032664 0.0
H H 0.06614146543974295 0.5746423599732726 0.7332864580931877 0.0
H H 0.38915024701612183 0.2923840627732975 0.7029606698542546 0.0
H H 0.4653314606357073 0.01933836016628144 0.6828651782234572 0.0
H H 0.5436511238820014 0.6833942357538045 0.7394804804815375 0.0
H H 0.6347712048426841 0.8873332126587237 0.7225761473400233 0.0
Cu Cu 0.5218406655028658 0.5221247445134867 0.5497077096480949 0.0
Si Si 0.5169658491561744 0.4617381884695094 0.02471846810150058 0.0
F F 0.5238394118513925 0.5192430488138754 0.7470137309746575 0.0
F F 0.5269645794049151 0.5223281374492379 0.1988326842765101 0.0
F F 0.35977598684937623 0.3958314035955304 0.02389287083840021 0.0
F F 0.6101967072326051 0.6370169401954676 -0.015014078335943927 0.0
F F 0.5954505577408951 0.39628214979222676 -0.0017950566498212835 0.0
F F 0.3988551721327353 0.6300832200029509 0.0061162250414652265 0.0
N N 0.3350705603803393 0.5210836805114756 0.4764140409637911 0.0
N N 0.7084384232308925 0.48930818710318813 0.475570681971204 0.0
N N 0.48032759380052553 0.36925093020836913 0.5078350884229971 0.0
N N 0.47768784997327773 0.6846105844630296 0.4595387470062964 0.0
