_cell_length_a 11.045
_cell_length_b 11.045
_cell_length_c 8.163
_cell_angle_alpha 90.0
_cell_angle_beta 90.0
_cell_angle_gamma 90.0
_symmetry_space_group_name_H-M         'P 1'
_symmetry_Int_Tables_number            1
loop_
_symmetry_equiv_pos_as_xyz
   'x, y, z'
                         
loop_
_atom_site_label
_atom_site_type_symbol
_atom_site_fract_x 
_atom_site_fract_y
_atom_site_fract_z
_atom_site_charge
C C 0.23386263758855322 0.4747016893168919 0.3789033531954184 0.0
C C 0.08800756194410449 0.4283198892442217 0.44921549361706353 0.0
C C 0.7179734573778909 0.5668102258447231 0.32955424109035825 0.0
C C 0.9048695465868085 0.5325883315738134 0.3684721044712841 0.0
C C 0.5480853931713467 0.2634361716625475 0.37521376845601684 0.0
C C 0.5691605256221413 0.09513490275549538 0.38036050122646425 0.0
C C 0.47627385800093824 0.6992870061554756 0.4231953548686209 0.0
C C 0.43249891304128346 0.9124562872125754 0.3368315701197489 0.0
C C 0.7629172133151552 0.47420902499678363 0.6332651278862091 0.0
C C 0.8488292008354459 0.4459742467381093 0.6502683057137592 0.0
C C 0.24275739032546653 0.566339034557972 0.5859503020534348 0.0
C C 0.10979101195602485 0.57738475669362 0.6028356696945207 0.0
C C 0.44948448499419585 0.24571517715874544 0.6081785932081325 0.0
C C 0.4928551834241831 0.13862257672541686 0.6313968914311867 0.0
C C 0.5355467680247226 0.7706445160291806 0.621328509377127 0.0
C C 0.5307078210133777 0.8481028708508205 0.6783036678081015 0.0
C C 0.0519862559271507 0.4810314525671489 0.5040901102291317 0.0
C C 0.9464823141841368 0.5109453705244703 0.49575156639227863 0.0
C C 0.4571500834393355 0.04995158948316081 0.527840231723004 0.0
C C 0.49954972827239835 0.9420122766863289 0.48761310418123516 0.0
H H 0.28803163758855327 0.44273768931689184 0.27560035319541837 0.0
H H 0.0413355619441045 0.39223688924422173 0.34228549361706356 0.0
H H 0.6638044573778908 0.5987742258447232 0.2262512410903582 0.0
H H 0.9515415465868085 0.5686713315738134 0.2615421044712841 0.0
H H 0.5800493931713467 0.31760517166254754 0.2719107684560168 0.0
H H 0.6052435256221413 0.04846290275549539 0.27343050122646434 0.0
H H 0.4443098580009382 0.6451180061554755 0.31989235486862083 0.0
H H 0.3964159130412835 0.9591282872125754 0.2299015701197489 0.0
H H 0.7087482133151551 0.44224502499678353 0.7365681278862092 0.0
H H 0.8955012008354458 0.4098912467381094 0.7571983057137591 0.0
H H 0.29692639032546647 0.598303034557972 0.6892533020534347 0.0
H H 0.06311901195602487 0.6134677566936202 0.7097656696945207 0.0
H H 0.4175204849941957 0.2998841771587454 0.7114815932081324 0.0
H H 0.45677218342418313 0.09195057672541689 0.7383268914311866 0.0
H H 0.5675107680247227 0.7164755160291806 0.724631509377127 0.0
H H 0.5667908210133779 0.8947748708508203 0.7852336678081013 0.0
Cu Cu 0.492122731836452 0.4806556025319769 0.4859988761704616 0.0
Si Si 0.5026393057993404 0.5089636188821001 0.013992655748549045 0.0
F F 0.47852467905491575 0.531644292811524 0.7334928999750044 0.0
F F 0.49972617275954856 0.48497059416306876 0.19196229453106986 0.0
F F 0.3658521638700916 0.3738247889925174 -0.0456818841023021 0.0
F F 0.6358941859486072 0.6196417431622464 0.023906490882101856 0.0
F F 0.605950767389114 0.38411358181566485 0.03402756349957488 0.0
F F 0.425463650171065 0.6190095563171313 -0.0048062577600046985 0.0
N N 0.3333731884052001 0.5194153204926014 0.482000315212851 0.0
N N 0.7042144746534733 0.5345902739044469 0.5440677456354658 0.0
N N 0.5196327326528395 0.3136138377455745 0.509483298676716 0.0
N N 0.5051297241535114 0.7080803319181401 0.5396426466247423 0.0
