_cell_length_a 11.045
_cell_length_b 11.045
_cell_length_c 8.163
_cell_angle_alpha 90.0
_cell_angle_beta 90.0
_cell_angle_gamma 90.0
_symmetry_space_group_name_H-M         'P 1'
_symmetry_Int_Tables_number            1
loop_
_symmetry_equiv_pos_as_xyz
   'x, y, z'
                         
loop_
_atom_site_label
_atom_site_type_symbol
_atom_site_fract_x 
_atom_site_fract_y
_atom_site_fract_z
_atom_site_charge
C C 0.2109532492370061 0.47951445463282627 0.3623477131042149 0.0
C C 0.1545582008844069 0.44774612781140954 0.3458616346020057 0.0
C C 0.7687085807785528 0.5288772938318692 0.381811923876826 0.0
C C 0.919088570136332 0.5093539594717613 0.4188917767117306 0.0
C C 0.4968801649171128 0.26058917330947035 0.3734515057510136 0.0
C C 0.53666077887237 0.13856039719962543 0.38965330598792475 0.0
C C 0.4894838931610696 0.7443935386581434 0.3897200136264536 0.0
C C 0.493233463421983 0.8987941068655014 0.375317745318343 0.0
C C 0.7489482032189536 0.4635893468934889 0.6362694115985075 0.0
C C 0.8578679419446209 0.4483547662828098 0.6383981419209132 0.0
C C 0.27351331314734134 0.5454178098639031 0.6906043384617835 0.0
C C 0.13922614451435264 0.5378534095714228 0.6598910894214476 0.0
C C 0.44027264952975836 0.21715493068443673 0.619891048865959 0.0
C C 0.47966372384511563 0.12268187190471061 0.6608490388922978 0.0
C C 0.5347837228852026 0.770900508803457 0.6879116557910034 0.0
C C 0.5475441423579075 0.8578335767128983 0.6629283599996214 0.0
C C 0.0660750273947771 0.5251757302824148 0.5272365372240964 0.0
C C 0.9556310996891063 0.5177184958905792 0.45793958143990576 0.0
C C 0.4916592293196947 0.04608148382222207 0.5402767684553081 0.0
C C 0.51272327957801 0.9159795773619365 0.5158284466266985 0.0
H H 0.2651222492370061 0.4475504546328262 0.2590447131042148 0.0
H H 0.10788620088440691 0.4116631278114096 0.23893163460200567 0.0
H H 0.7145395807785527 0.5608412938318693 0.27850892387682596 0.0
H H 0.9657605701363319 0.5454369594717615 0.3119617767117306 0.0
H H 0.5288441649171128 0.3147581733094703 0.27014850575101357 0.0
H H 0.5727437788723702 0.09188839719962542 0.2827233059879247 0.0
H H 0.45751989316106956 0.6902245386581434 0.28641701362645355 0.0
H H 0.457150463421983 0.9454661068655013 0.26838774531834303 0.0
H H 0.6947792032189537 0.4316253468934888 0.7395724115985074 0.0
H H 0.9045399419446208 0.41227176628280987 0.7453281419209131 0.0
H H 0.32768231314734136 0.5773818098639032 0.7939073384617834 0.0
H H 0.09255414451435265 0.573936409571423 0.7668210894214476 0.0
H H 0.4083086495297583 0.27132393068443666 0.723194048865959 0.0
H H 0.44358072384511565 0.0760098719047106 0.7677790388922978 0.0
H H 0.5667477228852026 0.716731508803457 0.7912146557910034 0.0
H H 0.5836271423579077 0.9045055767128982 0.7698583599996214 0.0
Cu Cu 0.5117607801050006 0.5239419003587439 0.47076185189535125 0.0
Si Si 0.4881469407563394 0.46556830683925216 0.016466880701322104 0.0
F F 0.5083417255665938 0.5211839922780905 0.7686005613737099 0.0
F F 0.5168927016606503 0.46427737386730744 0.23962645951954778 0.0
F F 0.40879627893352793 0.3785914758790009 0.02794721682446096 0.0
F F 0.6004863147631778 0.588795210525797 0.011201082969671256 0.0
F F 0.6292006271035594 0.3704635453015954 0.04071486740387801 0.0
F F 0.3938932989208052 0.6380633991307159 0.022766504864847582 0.0
N N 0.33544117335409834 0.5228519666133944 0.5136849683394871 0.0
N N 0.6492147392722712 0.5073479258070048 0.5393850034955804 0.0
N N 0.48871672556150875 0.3306086484332771 0.4827434160658422 0.0
N N 0.4958276697694243 0.6740695403993844 0.48808392726292715 0.0
