_cell_length_a 11.045
_cell_length_b 11.045
_cell_length_c 8.163
_cell_angle_alpha 90.0
_cell_angle_beta 90.0
_cell_angle_gamma 90.0
_symmetry_space_group_name_H-M         'P 1'
_symmetry_Int_Tables_number            1
loop_
_symmetry_equiv_pos_as_xyz
   'x, y, z'
                         
loop_
_atom_site_label
_atom_site_type_symbol
_atom_site_fract_x 
_atom_site_fract_y
_atom_site_fract_z
_atom_site_charge
C C 0.24966611610743952 0.43914937236515483 0.3769693142304983 0.0
C C 0.10078835171130303 0.4732059367864145 0.38532480458419155 0.0
C C 0.8082951794770924 0.5226140601720416 0.33094345814358767 0.0
C C 0.9121866386677439 0.5140439503737662 0.4043137258523444 0.0
C C 0.5362024401439046 0.21902488144410934 0.38942950309909014 0.0
C C 0.5104581333026823 0.1381615638728573 0.4152548922231297 0.0
C C 0.4702747958797101 0.7624822092755262 0.3335500183803067 0.0
C C 0.46793318094134306 0.8901161493380741 0.3469393484733682 0.0
C C 0.7336828538354572 0.42506302302734666 0.6546339551796078 0.0
C C 0.8672120830584834 0.4928848948576929 0.6437061965863219 0.0
C C 0.23689621755678844 0.5325037987890598 0.5782196758567755 0.0
C C 0.13579962761074532 0.5389232645063703 0.5980263728433707 0.0
C C 0.4804987369543914 0.24171073649431626 0.5767490891965192 0.0
C C 0.447151263049373 0.16423629845163074 0.5632227184560832 0.0
C C 0.5743311165123794 0.7152329072724487 0.649472967698656 0.0
C C 0.5856473620406805 0.8676647919884207 0.6406061520194444 0.0
C C 0.06243605281376864 0.5184836061320592 0.45118324782626346 0.0
C C 0.9138286057331251 0.5053329092709845 0.5145693773991221 0.0
C C 0.5180340044268572 0.07623327810368954 0.48475494370556416 0.0
C C 0.516719667681937 0.9319092915564682 0.49144088944294295 0.0
H H 0.3038351161074396 0.4071853723651548 0.2736663142304982 0.0
H H 0.05411635171130303 0.4371229367864145 0.2783948045841915 0.0
H H 0.7541261794770925 0.5545780601720417 0.22764045814358758 0.0
H H 0.9588586386677437 0.5501269503737664 0.2973837258523444 0.0
H H 0.5681664401439046 0.27319388144410933 0.28612650309909005 0.0
H H 0.5465411333026824 0.09148956387285731 0.30832489222312975 0.0
H H 0.43831079587971006 0.7083132092755262 0.23024701838030662 0.0
H H 0.4318501809413431 0.936788149338074 0.2400093484733682 0.0
H H 0.6795138538354573 0.39309902302734656 0.7579369551796077 0.0
H H 0.9138840830584832 0.45680189485769285 0.7506361965863219 0.0
H H 0.2910652175567884 0.56446779878906 0.6815226758567755 0.0
H H 0.08912762761074534 0.5750062645063704 0.7049563728433706 0.0
H H 0.4485347369543912 0.2958797364943162 0.6800520891965192 0.0
H H 0.41106826304937305 0.11756429845163077 0.6701527184560832 0.0
H H 0.6062951165123796 0.6610639072724487 0.752775967698656 0.0
H H 0.6217303620406804 0.9143367919884205 0.7475361520194443 0.0
Cu Cu 0.5131653348429647 0.5139014695386543 0.49411131592516744 0.0
Si Si 0.4945097953936675 0.49297234629985026 0.00016014153429948347 0.0
F F 0.5246312107664194 0.5126439901017799 0.7499241333176533 0.0
F F 0.4868612602671979 0.5313570654134544 0.2101879930021805 0.0
F F 0.3948242347300364 0.419074873936301 -0.03260627721913009 0.0
F F 0.6117623554132499 0.6067563573217996 -0.00863407043534632 0.0
F F 0.5901162318507757 0.37365570087698996 0.00010064320148454628 0.0
F F 0.373309743641573 0.6295131877276365 0.0035254008834420423 0.0
N N 0.3635661658121607 0.5293873992259327 0.464131765308155 0.0
N N 0.7252991739768011 0.5115117934188989 0.4594722226633993 0.0
N N 0.5243533345240567 0.3432788182587006 0.5014242999371441 0.0
N N 0.49772775610285425 0.6886644775701761 0.4917475974834167 0.0
