_cell_length_a 11.045
_cell_length_b 11.045
_cell_length_c 8.163
_cell_angle_alpha 90.0
_cell_angle_beta 90.0
_cell_angle_gamma 90.0
_symmetry_space_group_name_H-M         'P 1'
_symmetry_Int_Tables_number            1
loop_
_symmetry_equiv_pos_as_xyz
   'x, y, z'
                         
loop_
_atom_site_label
_atom_site_type_symbol
_atom_site_fract_x 
_atom_site_fract_y
_atom_site_fract_z
_atom_site_charge
C C 0.34750253711778806 0.4785709960882307 0.35557046443559714 0.0
C C 0.10246637232453217 0.473290572230969 0.32813465554911075 0.0
C C 0.7928001431319319 0.5119485169035705 0.337128443134625 0.0
C C 0.8826679907566399 0.5177551192283661 0.4378817665187853 0.0
C C 0.5595589509881288 0.2392334963179799 0.36220667849734306 0.0
C C 0.610385377467106 0.13566337097982265 0.38901103775705287 0.0
C C 0.47462273778684805 0.7763222154300061 0.3938636869170696 0.0
C C 0.4132109997824443 0.8853361846843035 0.43354159962774214 0.0
C C 0.7172458462611467 0.4742016205402643 0.6787845231439296 0.0
C C 0.8539395417297381 0.48795438479272846 0.6345102108942589 0.0
C C 0.23770262667267875 0.5245628282185089 0.6541602379349136 0.0
C C 0.13503832059020074 0.5458913114179437 0.6653348907585029 0.0
C C 0.44494266975470087 0.26132360489579853 0.6434821192432827 0.0
C C 0.43772650754368014 0.11707670223298537 0.6247294395782912 0.0
C C 0.5273742721808222 0.718103279734986 0.627914280940269 0.0
C C 0.48192002126389605 0.8449503651495914 0.6678784404962598 0.0
C C 0.05313925058688262 0.5150377361110504 0.45880609702455377 0.0
C C 0.9364834451675886 0.4785713406615702 0.4586714076278042 0.0
C C 0.47365005183350833 0.08861945659899355 0.46451334523199506 0.0
C C 0.5263809729552942 0.9157163716749795 0.5424184103669967 0.0
H H 0.40167153711778814 0.44660699608823073 0.2522674644355971 0.0
H H 0.05579437232453219 0.43720757223096907 0.2212046555491107 0.0
H H 0.7386311431319319 0.5439125169035706 0.23382544313462494 0.0
H H 0.9293399907566399 0.5538381192283663 0.3309517665187852 0.0
H H 0.5915229509881289 0.29340249631797993 0.258903678497343 0.0
H H 0.6464683774671061 0.08899137097982267 0.28208103775705284 0.0
H H 0.44265873778684794 0.7221532154300061 0.2905606869170695 0.0
H H 0.3771279997824443 0.9320081846843034 0.3266115996277421 0.0
H H 0.6630768462611468 0.4422376205402643 0.7820875231439295 0.0
H H 0.9006115417297379 0.45187138479272854 0.7414402108942588 0.0
H H 0.2918716266726787 0.5565268282185089 0.7574632379349135 0.0
H H 0.08836632059020072 0.5819743114179438 0.7722648907585029 0.0
H H 0.4129786697547008 0.31549260489579856 0.7467851192432827 0.0
H H 0.4016435075436802 0.0704047022329854 0.7316594395782912 0.0
H H 0.5593382721808223 0.663934279734986 0.731217280940269 0.0
H H 0.5180030212638963 0.8916223651495914 0.7748084404962596 0.0
Cu Cu 0.47784280808895213 0.4938124599012468 0.5139787107334165 0.0
Si Si 0.5227078371190492 0.5029490295821573 0.024457069611583865 0.0
F F 0.5114739461149101 0.5141056832088462 0.7579991395034321 0.0
F F 0.5215553871648451 0.5128701970127952 0.22956362116992618 0.0
F F 0.3913690061440571 0.40384557158777207 -0.006892261524479672 0.0
F F 0.6064524208581326 0.6079433153010046 -0.010672173362169995 0.0
F F 0.658684844221381 0.35581392207491075 -0.013185091401785042 0.0
F F 0.4222163459427403 0.6419425999729412 0.04376914695169879 0.0
N N 0.3382293139539724 0.49672386396398555 0.4777815717477968 0.0
N N 0.7042476705470798 0.4777162047883031 0.5468017017048271 0.0
N N 0.5141496612902795 0.34468305185999937 0.4906281087351002 0.0
N N 0.5086185841174036 0.6785466634531666 0.5218330161378268 0.0
