_cell_length_a 11.045
_cell_length_b 11.045
_cell_length_c 8.163
_cell_angle_alpha 90.0
_cell_angle_beta 90.0
_cell_angle_gamma 90.0
_symmetry_space_group_name_H-M         'P 1'
_symmetry_Int_Tables_number            1
loop_
_symmetry_equiv_pos_as_xyz
   'x, y, z'
                         
loop_
_atom_site_label
_atom_site_type_symbol
_atom_site_fract_x 
_atom_site_fract_y
_atom_site_fract_z
_atom_site_charge
C C 0.2529310252850653 0.48049607276852613 0.3767997140517582 0.0
C C 0.07543699926680214 0.47503825394180443 0.3120738066326255 0.0
C C 0.6974024700404171 0.5764933457478233 0.36435512219010985 0.0
C C 0.848303289934097 0.5960680157798758 0.3722286240792227 0.0
C C 0.5164084597691224 0.2284153005354999 0.3579979765503221 0.0
C C 0.5279970806647709 0.09485177024168456 0.37400061153559755 0.0
C C 0.410316965467048 0.7241264878258737 0.3837139331135218 0.0
C C 0.4628929653059672 0.8631866976276872 0.34552504141793544 0.0
C C 0.7251583900616264 0.43182775538309287 0.618133639815637 0.0
C C 0.8355162795790009 0.4328062332565798 0.6295260402305703 0.0
C C 0.2643138322527085 0.5806637224513854 0.6936878944206191 0.0
C C 0.1697102341636519 0.5686750539687112 0.6405580485784308 0.0
C C 0.46334052374487317 0.2738559670660274 0.6549654268625498 0.0
C C 0.43417126132281986 0.15901024260699886 0.5418040741686369 0.0
C C 0.5589616391643905 0.7203300455032923 0.6550070212204644 0.0
C C 0.5834138162685849 0.8520273309861033 0.6624312650108963 0.0
C C 0.06482958439668522 0.4853063041644117 0.5052001089302385 0.0
C C 0.9155540473383902 0.5414297762027847 0.5004283106844436 0.0
C C 0.522590961423461 0.06834057403920288 0.5229833561452715 0.0
C C 0.4802036157365532 0.9319597652032104 0.5117824702733538 0.0
H H 0.3071000252850653 0.4485320727685261 0.2734967140517582 0.0
H H 0.02876499926680215 0.4389552539418045 0.20514380663262552 0.0
H H 0.6432334700404171 0.6084573457478234 0.2610521221901098 0.0
H H 0.8949752899340969 0.6321510157798759 0.26529862407922267 0.0
H H 0.5483724597691225 0.2825843005354999 0.2546949765503221 0.0
H H 0.564080080664771 0.04817977024168456 0.2670706115355975 0.0
H H 0.37835296546704794 0.6699574878258737 0.2804109331135218 0.0
H H 0.4268099653059672 0.909858697627687 0.2385950414179354 0.0
H H 0.6709893900616264 0.39986375538309277 0.7214366398156369 0.0
H H 0.8821882795790008 0.3967232332565798 0.7364560402305703 0.0
H H 0.3184828322527085 0.6126277224513854 0.796990894420619 0.0
H H 0.12303823416365194 0.6047580539687113 0.7474880485784308 0.0
H H 0.4313765237448731 0.32802496706602735 0.7582684268625497 0.0
H H 0.3980882613228198 0.11233824260699889 0.6487340741686368 0.0
H H 0.5909256391643906 0.6661610455032922 0.7583100212204643 0.0
H H 0.6194968162685851 0.8986993309861031 0.7693612650108963 0.0
Cu Cu 0.484012598292349 0.4945631470083733 0.5185154912470015 0.0
Si Si 0.5050089679510912 0.4825074839648783 0.011599919341869935 0.0
F F 0.5057161656389768 0.49101842382084715 0.7793417470960071 0.0
F F 0.5323864926395265 0.4936060435241315 0.20353354964421574 0.0
F F 0.4329991153237763 0.4031320669505443 -0.008646400509578803 0.0
F F 0.627837655310521 0.6053549349115824 -0.05209136878973942 0.0
F F 0.6365606647415457 0.4070715888502633 0.017600058388086336 0.0
F F 0.4375989306201597 0.5789092272097712 0.030844620900727693 0.0
N N 0.28688393656026284 0.47056695215956124 0.5229213685942387 0.0
N N 0.7242157299994819 0.4721922763791971 0.4795340531980944 0.0
N N 0.5329600012469338 0.305926394950352 0.49555110970540234 0.0
N N 0.5132104491407498 0.6803624176484778 0.5525890023123701 0.0
