_cell_length_a 11.045
_cell_length_b 11.045
_cell_length_c 8.163
_cell_angle_alpha 90.0
_cell_angle_beta 90.0
_cell_angle_gamma 90.0
_symmetry_space_group_name_H-M         'P 1'
_symmetry_Int_Tables_number            1
loop_
_symmetry_equiv_pos_as_xyz
   'x, y, z'
                         
loop_
_atom_site_label
_atom_site_type_symbol
_atom_site_fract_x 
_atom_site_fract_y
_atom_site_fract_z
_atom_site_charge
C C 0.2578271263492517 0.46079844182351337 0.38460069098798494 0.0
C C 0.09243440889544047 0.44046402828502706 0.28170172609140376 0.0
C C 0.7312313307643569 0.5663402529856124 0.4325887173920054 0.0
C C 0.8406854762415263 0.5632192905871511 0.292498271325047 0.0
C C 0.5161528140994356 0.22326836018227358 0.36913722871635385 0.0
C C 0.5987069677038402 0.12494357937578768 0.37321279192274204 0.0
C C 0.49132275251751345 0.7611551422984687 0.39264935435923215 0.0
C C 0.4836691057275594 0.8837577049590617 0.33529299690072734 0.0
C C 0.7155429545230568 0.5006480186173922 0.6413220548095167 0.0
C C 0.8499189232255782 0.46073045160109494 0.6387932692309112 0.0
C C 0.2647140324174056 0.5423766600176518 0.6364404932717269 0.0
C C 0.1404000339020576 0.5714593942328207 0.5893608006127288 0.0
C C 0.47232679019118035 0.2517956373178051 0.6518821789000141 0.0
C C 0.44068546154653515 0.15528598083932219 0.5965440745391044 0.0
C C 0.5427021236626851 0.7639126083109241 0.6464153357277254 0.0
C C 0.5283439880719218 0.8664864729405249 0.6821010099953766 0.0
C C 0.09244497296006954 0.49213558144084746 0.4819989935861717 0.0
C C 0.8988727842702166 0.4583571710087926 0.4990760093444441 0.0
C C 0.5191960324224952 0.08342377685079846 0.5119871886136801 0.0
C C 0.5022852552255518 0.9438392476298445 0.4892909005227763 0.0
H H 0.3119961263492518 0.4288344418235133 0.2812976909879849 0.0
H H 0.04576240889544048 0.40438102828502714 0.17477172609140376 0.0
H H 0.677062330764357 0.5983042529856125 0.32928571739200535 0.0
H H 0.8873574762415263 0.5993022905871512 0.18556827132504702 0.0
H H 0.5481168140994356 0.2774373601822736 0.2658342287163538 0.0
H H 0.6347899677038404 0.07827157937578766 0.26628279192274207 0.0
H H 0.4593587525175134 0.7069861422984686 0.28934635435923206 0.0
H H 0.4475861057275594 0.9304297049590616 0.22836299690072734 0.0
H H 0.6613739545230568 0.46868401861739206 0.7446250548095166 0.0
H H 0.8965909232255781 0.42464745160109496 0.7457232692309111 0.0
H H 0.3188830324174056 0.5743406600176519 0.7397434932717268 0.0
H H 0.0937280339020576 0.6075423942328207 0.6962908006127287 0.0
H H 0.4403627901911803 0.3059646373178051 0.755185178900014 0.0
H H 0.4046024615465351 0.10861398083932221 0.7034740745391044 0.0
H H 0.5746661236626851 0.709743608310924 0.7497183357277253 0.0
H H 0.5644269880719218 0.9131584729405248 0.7890310099953766 0.0
Cu Cu 0.5073128517599584 0.5048490515795389 0.5090476448562982 0.0
Si Si 0.5177223580543735 0.5120904419702829 0.022763273792374836 0.0
F F 0.5128807514477208 0.48615040258177084 0.803174263206429 0.0
F F 0.48366199580657243 0.4743029929464159 0.23033300887981173 0.0
F F 0.3890869164129378 0.37761660172355294 0.015533401497967126 0.0
F F 0.5878220116427704 0.6170271039085131 0.02503598172412364 0.0
F F 0.6211824486317173 0.3616277151697545 0.03197723017349474 0.0
F F 0.3710078062128201 0.5927801487973797 0.006668640424221228 0.0
N N 0.2978591900469398 0.4831279456980443 0.5328905271318136 0.0
N N 0.6591383582739526 0.517024288480428 0.5329582892083093 0.0
N N 0.5411394825837933 0.31974495877896797 0.45289477170376635 0.0
N N 0.5146045758676321 0.698607670885138 0.5064859362443054 0.0
