_cell_length_a 11.045
_cell_length_b 11.045
_cell_length_c 8.163
_cell_angle_alpha 90.0
_cell_angle_beta 90.0
_cell_angle_gamma 90.0
_symmetry_space_group_name_H-M         'P 1'
_symmetry_Int_Tables_number            1
loop_
_symmetry_equiv_pos_as_xyz
   'x, y, z'
                         
loop_
_atom_site_label
_atom_site_type_symbol
_atom_site_fract_x 
_atom_site_fract_y
_atom_site_fract_z
_atom_site_charge
C C 0.2940635092274414 0.4476905686112117 0.40950886494772665 0.0
C C 0.11207192243640875 0.406008340013354 0.4198849308969455 0.0
C C 0.752562653375606 0.5488173031391999 0.37941754040861697 0.0
C C 0.8533157769637669 0.5285127680949184 0.38858927601560894 0.0
C C 0.5555071356979199 0.23499534834042843 0.3601206324715771 0.0
C C 0.567853336491915 0.12668002174679274 0.38170911989292766 0.0
C C 0.4938836913960491 0.728713961095323 0.41519641317789635 0.0
C C 0.45140443972113714 0.8446671962537682 0.36328246681003523 0.0
C C 0.737585353348777 0.4684583665717135 0.5984712194171928 0.0
C C 0.866176855524285 0.4520114883985931 0.7370598748550877 0.0
C C 0.24305686038449092 0.53254007423426 0.6419442758171462 0.0
C C 0.1320799183228315 0.5673357098416537 0.5972914102427085 0.0
C C 0.479466259483209 0.27390077969869175 0.6352428453405126 0.0
C C 0.4724636198437796 0.11592208131830832 0.65164832556269 0.0
C C 0.5290865791075475 0.7490577912603904 0.6157637075564507 0.0
C C 0.48671609238509117 0.8339820652014359 0.6737057882662083 0.0
C C 0.07056045206844563 0.4755285416637806 0.4374128770239809 0.0
C C 0.9288988354089793 0.46744842980548573 0.47530693648549616 0.0
C C 0.4665290090468258 0.03987451634577785 0.48420258322233245 0.0
C C 0.5153446994292706 0.916839865935906 0.5057989615046541 0.0
H H 0.34823250922744137 0.41572656861121166 0.3062058649477266 0.0
H H 0.06539992243640876 0.36992534001335403 0.3129549308969455 0.0
H H 0.698393653375606 0.5807813031391998 0.27611454040861694 0.0
H H 0.8999877769637668 0.5645957680949186 0.2816592760156089 0.0
H H 0.58747113569792 0.2891643483404284 0.2568176324715771 0.0
H H 0.6039363364919151 0.08000802174679275 0.27477911989292764 0.0
H H 0.46191969139604905 0.6745449610953231 0.31189341317789626 0.0
H H 0.41532143972113716 0.8913391962537681 0.2563524668100352 0.0
H H 0.6834163533487772 0.43649436657171337 0.7017742194171928 0.0
H H 0.9128488555242849 0.4159284883985932 0.8439898748550876 0.0
H H 0.29722586038449084 0.5645040742342601 0.7452472758171461 0.0
H H 0.0854079183228315 0.6034187098416539 0.7042214102427085 0.0
H H 0.44750225948320904 0.3280697796986917 0.7385458453405125 0.0
H H 0.4363806198437796 0.06925008131830834 0.75857832556269 0.0
H H 0.5610505791075475 0.6948887912603904 0.7190667075564506 0.0
H H 0.5227990923850914 0.8806540652014359 0.7806357882662083 0.0
Cu Cu 0.4740851187438756 0.49631466323179724 0.47094745721366527 0.0
Si Si 0.5089757955370905 0.4825076329051973 0.001887260482010979 0.0
F F 0.5452785176661646 0.5084247562895788 0.7271496678520806 0.0
F F 0.5013637738658464 0.5016089789540937 0.2229085562095394 0.0
F F 0.4001266427116159 0.37512422019407327 -0.023420429167894732 0.0
F F 0.5965780209131859 0.6020522861827086 0.004511142217387445 0.0
F F 0.6120431457757218 0.39291449943527385 0.035624981845930555 0.0
F F 0.35325591606604445 0.6163381132574555 0.0309341929764336 0.0
N N 0.322858088930338 0.46665646705710484 0.4894244593555527 0.0
N N 0.6526075971630672 0.4864700040867053 0.46330862680062196 0.0
N N 0.5283666506973095 0.3374267175607899 0.4870782048865237 0.0
N N 0.48504997212241535 0.6805034448821082 0.48509091238026714 0.0
