_cell_length_a 11.045
_cell_length_b 11.045
_cell_length_c 8.163
_cell_angle_alpha 90.0
_cell_angle_beta 90.0
_cell_angle_gamma 90.0
_symmetry_space_group_name_H-M         'P 1'
_symmetry_Int_Tables_number            1
loop_
_symmetry_equiv_pos_as_xyz
   'x, y, z'
                         
loop_
_atom_site_label
_atom_site_type_symbol
_atom_site_fract_x 
_atom_site_fract_y
_atom_site_fract_z
_atom_site_charge
C C 0.2592987237985636 0.45927168779063915 0.40468287188530094 0.0
C C 0.12574384375530892 0.4479263575856848 0.34535017308134447 0.0
C C 0.7687677819168859 0.5965557812074854 0.3563325458468917 0.0
C C 0.8790997678519967 0.5301378300277033 0.3547615136079527 0.0
C C 0.5396345889106359 0.23916884182270592 0.35527351814988933 0.0
C C 0.5672399693854784 0.20717171268407186 0.37568893367229295 0.0
C C 0.47536804528766463 0.7471509864714516 0.36489546071963735 0.0
C C 0.46719093874573225 0.8676536685581454 0.3421282640759521 0.0
C C 0.7534710610023901 0.4195326686437455 0.6007664790912024 0.0
C C 0.8904898697241173 0.47174378551284246 0.5517644026538427 0.0
C C 0.2686383780451734 0.5597999794106346 0.6509572098782529 0.0
C C 0.11738528200439946 0.4907104185793618 0.6636208154091233 0.0
C C 0.45189456595400795 0.22528747978866898 0.6384887144904938 0.0
C C 0.44768011930154683 0.12572455590287585 0.6937570525706425 0.0
C C 0.5375901808549696 0.7525506024009148 0.6692045585367267 0.0
C C 0.515146232804263 0.8851792746347515 0.6067143274490966 0.0
C C 0.03985540235461474 0.48201790808009026 0.5145967661152988 0.0
C C 0.9181760180100632 0.47751225287770144 0.5462782593783349 0.0
C C 0.5181548399483541 0.11904099646099708 0.5077892324798172 0.0
C C 0.4903543169894223 0.9641877586071066 0.4896820146922585 0.0
H H 0.31346772379856364 0.4273076877906391 0.3013798718853009 0.0
H H 0.07907184375530894 0.4118433575856848 0.23842017308134444 0.0
H H 0.714598781916886 0.6285197812074854 0.25302954584689163 0.0
H H 0.9257717678519966 0.5662208300277034 0.24783151360795272 0.0
H H 0.571598588910636 0.29333784182270595 0.25197051814988924 0.0
H H 0.6033229693854785 0.16049971268407187 0.2687589336722929 0.0
H H 0.44340404528766447 0.6929819864714517 0.2615924607196373 0.0
H H 0.4311079387457323 0.9143256685581453 0.23519826407595207 0.0
H H 0.6993020610023901 0.3875686686437454 0.7040694790912023 0.0
H H 0.9371618697241172 0.43566078551284243 0.6586944026538427 0.0
H H 0.32280737804517334 0.5917639794106346 0.7542602098782528 0.0
H H 0.07071328200439948 0.526793418579362 0.7705508154091233 0.0
H H 0.4199305659540079 0.27945647978866894 0.7417917144904937 0.0
H H 0.41159711930154685 0.07905255590287585 0.8006870525706424 0.0
H H 0.5695541808549696 0.6983816024009148 0.7725075585367266 0.0
H H 0.551229232804263 0.9318512746347514 0.7136443274490966 0.0
Cu Cu 0.5095727609985305 0.5191802088667571 0.4949777766612497 0.0
Si Si 0.45439843184797185 0.4797625935375551 -0.03188582166796623 0.0
F F 0.5422942132400755 0.4929155339741291 0.8073964725532704 0.0
F F 0.501994339189467 0.5336387159860013 0.22278859138997237 0.0
F F 0.41123712317422806 0.3939684455647612 0.04497451260982882 0.0
F F 0.6091013153511896 0.6018790988869787 -0.01691972347793678 0.0
F F 0.6373516766345299 0.4004935486397924 0.01321501541241106 0.0
F F 0.36911441671818457 0.6451176641694721 0.008605487348972518 0.0
N N 0.34362773945430075 0.49340044534108946 0.4430307217661545 0.0
N N 0.6771070282664409 0.5046207288402883 0.44325101460089594 0.0
N N 0.49539226009232096 0.3326280121498891 0.5306705957489685 0.0
N N 0.47478704182666537 0.6611526912005243 0.5079062596159855 0.0
