_cell_length_a 8.39304
_cell_length_b 22.23511
_cell_length_c 18.74218
_cell_angle_alpha 90.0
_cell_angle_beta 94.0312
_cell_angle_gamma 90.0
_symmetry_space_group_name_H-M         'P 1'
_symmetry_Int_Tables_number            1
loop_
_symmetry_equiv_pos_as_xyz
   'x, y, z'
                         
loop_
_atom_site_label
_atom_site_type_symbol
_atom_site_fract_x 
_atom_site_fract_y
_atom_site_fract_z
_atom_site_charge
Cd Cd 0.31957537001644515 0.5561566889945565 0.9815520402549639 0.0
O O 0.41888089362650033 0.461018858200519 1.0587789499190758 0.0
O O 0.21192377377508786 0.5032634483724553 1.08211391150855 0.0
O O 0.8972896465001726 0.7741294362150954 1.157585594992581 0.0
O O 0.40504136469653396 0.7714606706755713 1.2602452381015796 0.0
N N 0.4608895429149866 0.6184277170021764 1.0709099112696276 0.0
N N 0.6460107654908664 0.7540536129417058 1.2019218396847922 0.0
C C 0.28846664385175363 0.468518440464919 1.086496695938383 0.0
C C 0.2855887289767162 0.4201901417052512 1.1494049009121738 0.0
C C 0.13817268708770872 0.42513799336600383 1.182804758142634 0.0
H H 0.0632626870877087 0.45599799336600383 1.1701647581426338 0.0
C C 0.08640652319178833 0.3783045059621403 1.2343778955167068 0.0
H H -0.012503476808211714 0.37886450596214033 1.2560378955167069 0.0
C C 0.22242541553965736 0.3355867125488283 1.244797320123908 0.0
C C 0.3360727717427588 0.3338943654463866 1.2141080677102507 0.0
C C 0.3735250968615495 0.37903298982613204 1.161840695996217 0.0
H H 0.47113509686154964 0.377002989826132 1.1393106959962171 0.0
C C 0.5555161448246009 0.7827783566864017 1.2558215511782156 0.0
C C 0.7805884621690735 0.7880197388464012 1.2047644129522235 0.0
C C 0.5621179074651981 0.6584395152974476 1.0448047715898139 0.0
H H 0.5905279074651981 0.6557095152974477 0.9966747715898141 0.0
C C 0.6261775764001213 0.7059932552259368 1.0795088273408278 0.0
H H 0.6969875764001213 0.7343632552259366 1.0609688273408278 0.0
C C 0.5746047807712851 0.7109583717916934 1.161625798623893 0.0
C C 0.4800201989048148 0.6625192993801315 1.1834198571474044 0.0
H H 0.45171019890481484 0.6626892993801315 1.2315798571474046 0.0
C C 0.4084811448365508 0.6265567111724198 1.1382384578240896 0.0
H H 0.3349911448365508 0.5980267111724199 1.1545984578240898 0.0
O O 0.2586410524830856 0.6437596808995177 0.905431409973823 0.0
O O 0.10498947279821332 0.6218173214673425 0.9899521803097168 0.0
O O -0.1533419008262516 0.3410254750123694 0.7716527653837872 0.0
O O 0.32966169982216925 0.37131332718442395 0.671866466529624 0.0
N N 0.11908061983050668 0.36788579455963727 0.7286529511472177 0.0
N N 0.22496498418567915 0.48866491647265153 0.8954732538791019 0.0
C C 0.139157113290059 0.6561185342414261 0.9417428961421809 0.0
C C 0.04574827693151382 0.7052372924013723 0.9118321733674701 0.0
C C -0.09270631230802333 0.7205626366326104 0.9359870985212233 0.0
H H -0.12691631230802336 0.6958326366326105 0.9732470985212233 0.0
C C 0.19421237519558895 0.26325486439895185 0.5911972478487454 0.0
H H 0.2926223751955889 0.27212486439895184 0.5714572478487454 0.0
C C 0.14362608383788197 0.2966895432484574 0.6474558170436199 0.0
C C 0.007137509445015447 0.28661350345514786 0.6657013095896209 0.0
C C 0.11186747584036648 0.7477236997809341 0.8506240348418372 0.0
H H 0.21235747584036652 0.7402936997809341 0.8318840348418373 0.0
C C 0.22699077137216706 0.3562099786662576 0.6786767223763788 0.0
C C -0.02297827191880414 0.33392293310935417 0.7280142916496766 0.0
C C 0.2624157206312395 0.50161305822719 0.837399011721255 0.0
H H 0.31793572063123954 0.5373830582271901 0.827169011721255 0.0
C C 0.22668512331966845 0.4673745365256901 0.7732220919669504 0.0
H H 0.25499512331966845 0.4758445365256901 0.7260820919669505 0.0
C C 0.1408092736738486 0.4131930281827006 0.7885560120879737 0.0
C C 0.08782159583891862 0.40498817734262454 0.8572535050794994 0.0
H H 0.027841595838918626 0.3705581773426246 0.8691135050794995 0.0
C C 0.14433574208820743 0.4458347295253969 0.9104611719223255 0.0
H H 0.1125857420882074 0.43921472952539686 0.9575411719223255 0.0
Cd Cd -0.3230369501163988 1.0576342359268593 -0.4853127657534284 0.0
O O -0.41880397354422055 0.9610553676912488 -0.5560016580471715 0.0
O O -0.20423530764761774 1.001335257030747 -0.5813448992511451 0.0
O O -0.8903109925197877 1.272213266301007 -0.6615543254240221 0.0
O O -0.4255026534322472 1.2672033286228577 -0.7585318377557398 0.0
N N -0.43832668743903386 1.1205273902635104 -0.5665009993923589 0.0
N N -0.6292753584174291 1.2537946068857466 -0.6965055945613935 0.0
C C -0.30429310636955825 0.9701677985433731 -0.5922126129905475 0.0
C C -0.2916440205246857 0.9178297529717161 -0.6439942692232478 0.0
C C -0.13790417074092762 0.919623147335557 -0.6864943654367414 0.0
H H -0.06299417074092763 0.9504831473355572 -0.6738543654367414 0.0
C C -0.10191660727723881 0.8837719370555582 -0.7320308802519714 0.0
H H -0.00300660727723878 0.8843319370555582 -0.7536908802519713 0.0
C C -0.2030023096596734 0.8409501934635835 -0.7564199808961669 0.0
C C -0.3549741123192498 0.8409383222964466 -0.7174518136106851 0.0
C C -0.40738765104462055 0.8762610939908215 -0.6615728159324904 0.0
H H -0.5049976510446207 0.8742310939908216 -0.6390428159324905 0.0
C C -0.5563315692153278 1.2816614648944817 -0.7527823163883421 0.0
C C -0.8006878939392352 1.282952054438084 -0.7045511226291172 0.0
C C -0.5570056346796021 1.1602081816310263 -0.5382231876258906 0.0
H H -0.5854156346796022 1.1574781816310262 -0.49009318762589077 0.0
C C -0.6187458785641979 1.2101187219770808 -0.5767077210093478 0.0
H H -0.6895558785641981 1.2384887219770808 -0.5581677210093476 0.0
C C -0.5835604172732745 1.2154559763555695 -0.660180415053499 0.0
C C -0.49528310851144275 1.1664703330222506 -0.683056295673303 0.0
H H -0.4669731085114427 1.1666403330222506 -0.7312162956733029 0.0
C C -0.42475749036605387 1.127063834446671 -0.6367535942241378 0.0
H H -0.3512674903660538 1.098533834446671 -0.6531135942241381 0.0
O O -0.2607068640122201 1.1414686477297442 -0.41661844068957354 0.0
O O -0.07570064120720839 1.122535353622647 -0.4818044416811319 0.0
O O 0.14117447623575521 0.8387286555990564 -0.2614339928696928 0.0
O O -0.33552605127538415 0.8789373342828559 -0.1747286689515659 0.0
N N -0.099539006622129 0.8738944464829741 -0.23696193830304035 0.0
N N -0.23815716743324522 0.9953411420586541 -0.40425963272522286 0.0
C C -0.15029886025231753 1.1558075188219805 -0.43422016162135146 0.0
C C -0.04539931749080512 1.2021647260082309 -0.4080811283918899 0.0
C C 0.08529612756805771 1.2229779560624512 -0.43201968161086207 0.0
H H 0.1195061275680577 1.1982479560624513 -0.4692796816108621 0.0
C C -0.18153753660702343 0.7649086100324093 -0.09029936744516784 0.0
H H -0.27994753660702343 0.7737786100324093 -0.07055936744516786 0.0
C C -0.13398032545755073 0.7964577499845942 -0.14221278120896835 0.0
C C 0.005624640308907053 0.7906244882800743 -0.16780264510259355 0.0
C C -0.10699272396426456 1.247283774374613 -0.35364532287936384 0.0
H H -0.20748272396426456 1.2398537743746132 -0.33490532287936386 0.0
C C -0.2291800515957026 0.8567687570894331 -0.18184396152386673 0.0
C C 0.029849460023601285 0.8301618587227766 -0.22477612509559497 0.0
C C -0.25504709187469354 1.0070557479457671 -0.32171488507525875 0.0
H H -0.3105670918746936 1.0428257479457672 -0.3114848850752588 0.0
C C -0.20500181982173551 0.9634402942142849 -0.27140260805005395 0.0
H H -0.23331181982173552 0.9719102942142849 -0.22426260805005396 0.0
C C -0.13267019491447504 0.9171524297203008 -0.29247959159918663 0.0
C C -0.07997275795477887 0.9053077568867222 -0.35999278815161967 0.0
H H -0.019992757954778884 0.8708777568867222 -0.3718527881516197 0.0
C C -0.14597291886637578 0.9469969666844203 -0.41252107150615375 0.0
H H -0.11422291886637578 0.9403769666844204 -0.4596010715061537 0.0
Cd Cd -0.3201094883598028 -0.5556747531984612 -0.9898516894081366 0.0
O O -0.4322339507973638 -0.46510166160566985 -1.0549059870855995 0.0
O O -0.19197633041974288 -0.508030336071667 -1.0790789100726457 0.0
O O -0.8804673177642108 -0.7655699408904723 -1.1649107476881067 0.0
O O -0.3991836197685287 -0.7715972850785451 -1.266666891228163 0.0
N N -0.44859140514888357 -0.6204072603690801 -1.0645600004412676 0.0
N N -0.6429419486911362 -0.7531464316694265 -1.2039090810735988 0.0
C C -0.31277803353382566 -0.4624902125302074 -1.0878930552637602 0.0
C C -0.2717202871074667 -0.42433911110136396 -1.1480816543999068 0.0
C C -0.12731354488135818 -0.4232086486529276 -1.1838432595456987 0.0
H H -0.052403544881358115 -0.4540686486529276 -1.1712032595456987 0.0
C C -0.08862154759623894 -0.3850518365285697 -1.2324000571885705 0.0
H H 0.010288452403761082 -0.38561183652856973 -1.2540600571885705 0.0
C C -0.2157760255547674 -0.3354927557302056 -1.2450964126959485 0.0
C C -0.35310963605741447 -0.3323988531797811 -1.2157068792202816 0.0
C C -0.3810045593664207 -0.3820825023935103 -1.1651682674173724 0.0
H H -0.4786145593664208 -0.38005250239351035 -1.1426382674173725 0.0
C C -0.5628171751858309 -0.7846884730269962 -1.258488968730386 0.0
C C -0.7933832010019884 -0.7864489647056385 -1.191897836988698 0.0
C C -0.5685211547346016 -0.6605135249086176 -1.0462199441890248 0.0
H H -0.5969311547346017 -0.6577835249086178 -0.998089944189025 0.0
C C -0.6372989481327224 -0.7033450255123856 -1.0875506218608406 0.0
H H -0.7081089481327223 -0.7317150255123857 -1.0690106218608406 0.0
C C -0.5905126749739392 -0.707888884494235 -1.1507360222923517 0.0
C C -0.4888788206606162 -0.6661073566418083 -1.174747413625591 0.0
H H -0.4605688206606163 -0.6662773566418083 -1.2229074136255913 0.0
C C -0.4168242941109542 -0.625827524017586 -1.1377632334558883 0.0
H H -0.3433342941109542 -0.5972975240175861 -1.1541232334558882 0.0
O O -0.28625125269772167 -0.6443877183052014 -0.9134564117443517 0.0
O O -0.0946164454059373 -0.6192291600327011 -0.9882357369846997 0.0
O O 0.12882955792921535 -0.34154183769329516 -0.7651331045421673 0.0
O O -0.3452878818532876 -0.37336853952850596 -0.6783241566680723 0.0
N N -0.12821676012217725 -0.36476927867517656 -0.7354520098728013 0.0
N N -0.23308560900461167 -0.49184806870021364 -0.8971094005935623 0.0
C C -0.13023062387747203 -0.6517604496034083 -0.941908204091646 0.0
C C -0.040354151455735676 -0.7047166578792605 -0.9047581413340834 0.0
C C 0.10308025856686005 -0.7162383399512825 -0.9371101608974362 0.0
H H 0.1372902585668601 -0.6915083399512826 -0.974370160897436 0.0
C C -0.19246178208931491 -0.2620943323364314 -0.5912792664362608 0.0
H H -0.2908717820893149 -0.27096433233643147 -0.5715392664362609 0.0
C C -0.15048786536181757 -0.30270629747230776 -0.6476382763177525 0.0
C C 0.01840256828314579 -0.28945791634366697 -0.6730397906922486 0.0
C C -0.09272299899663011 -0.7435993447826421 -0.8583759036713451 0.0
H H -0.19321299899663014 -0.7361693447826421 -0.8396359036713451 0.0
C C -0.20887235321649203 -0.35332591469455243 -0.6854262409159457 0.0
C C 0.01674253231482389 -0.3378191248951577 -0.730527993507178 0.0
C C -0.2753454802520155 -0.5022858369588638 -0.8273331525138905 0.0
H H -0.3308654802520155 -0.5380558369588638 -0.8171031525138905 0.0
C C -0.23688395929411252 -0.4625405810697521 -0.770525473679425 0.0
H H -0.2651939592941125 -0.4710105810697521 -0.7233854736794251 0.0
C C -0.15684741036176195 -0.41227203371171994 -0.790131627090077 0.0
C C -0.0936350104547105 -0.40166472727494523 -0.8576352293083928 0.0
H H -0.033655010454710525 -0.36723472727494527 -0.8694952293083928 0.0
C C -0.12957762020368044 -0.44769311874896256 -0.9126847209666283 0.0
H H -0.09782762020368041 -0.44107311874896254 -0.9597647209666283 0.0
Cd Cd 0.32340738775479305 -1.0600939155370122 0.48438488800082175 0.0
O O 0.438991880607666 -0.9600675311018412 0.5605034763316128 0.0
O O 0.21561845539667784 -1.0115387493611385 0.5781470555325194 0.0
O O 0.890534623005235 -1.2660837546344201 0.6562941858618843 0.0
O O 0.4296913032152798 -1.2690257116610075 0.7680583974122781 0.0
N N 0.4481513956832124 -1.1245003649215544 0.5667954262780136 0.0
N N 0.6373285024696613 -1.2623793851404446 0.6991414779697087 0.0
C C 0.3233930858143157 -0.963826470514045 0.5901961844763428 0.0
C C 0.28368658863833507 -0.9209889034576881 0.6418055427497422 0.0
C C 0.13784798239149842 -0.920462671847907 0.6750456938549598 0.0
H H 0.06293798239149845 -0.9513226718479072 0.6624056938549598 0.0
C C 0.09047280308260366 -0.874893710527633 0.7337935664262769 0.0
H H -0.008437196917396349 -0.875453710527633 0.7554535664262769 0.0
C C 0.20284428753649467 -0.8387602131817129 0.7438177640299393 0.0
C C 0.3399994598676715 -0.8374952392247331 0.7249796592029056 0.0
C C 0.3998053267218496 -0.8739140108638223 0.658431870376552 0.0
H H 0.49741532672184974 -0.8718840108638223 0.6359018703765521 0.0
C C 0.5543797717562788 -1.2854731181341283 0.7576822715440831 0.0
C C 0.7789736809489849 -1.2849805072179894 0.6918127575912707 0.0
C C 0.5711798756604761 -1.163400405886522 0.5378205516417239 0.0
H H 0.5995898756604763 -1.1606704058865218 0.48969055164172404 0.0
C C 0.6366857944465085 -1.2078751568979564 0.5793789266205335 0.0
H H 0.7074957944465087 -1.2362451568979564 0.5608389266205334 0.0
C C 0.5826865923840316 -1.2076148800012443 0.6594696309165158 0.0
C C 0.48631138222038095 -1.1617690167228658 0.6799669172328342 0.0
H H 0.4580013822203809 -1.161939016722866 0.7281269172328341 0.0
C C 0.4322962837157327 -1.125891810236774 0.629647083859583 0.0
H H 0.35880628371573264 -1.0973618102367741 0.6460070838595832 0.0
O O 0.27639352147975293 -1.1429962379943792 0.40046844615522026 0.0
O O 0.08376632352437988 -1.1245820625609146 0.4818573331723175 0.0
O O -0.13144678876589194 -0.8360723134101432 0.26292816529727314 0.0
O O 0.3286337042926384 -0.8776968183742945 0.1720886612422779 0.0
N N 0.12578193545635466 -0.8670690876447087 0.2413452019467539 0.0
N N 0.22740497986142155 -0.9970325731658713 0.4023175582403343 0.0
C C 0.144937863419719 -1.1507977876076454 0.43449465749410165 0.0
C C 0.05837108430351255 -1.2111361487783663 0.4042344938084475 0.0
C C -0.08004754670172287 -1.2158343126498727 0.43563192253144667 0.0
H H -0.11425754670172283 -1.1911043126498728 0.4728919225314467 0.0
C C 0.19215198688942922 -0.763890368726419 0.09366127198326575 0.0
H H 0.2905619868894293 -0.7727603687264191 0.07392127198326577 0.0
C C 0.14343321103458992 -0.8033504592408777 0.14581906336778216 0.0
C C 0.011855598665794938 -0.7841839421418064 0.16817402974855658 0.0
C C 0.10119614579912857 -1.245662091418894 0.3546893494358896 0.0
H H 0.20168614579912855 -1.238232091418894 0.33594934943588967 0.0
C C 0.2015502788651117 -0.8486785063986987 0.18647041474003956 0.0
C C -0.0379588627351204 -0.8376769313408773 0.231680106200323 0.0
C C 0.27732836552694456 -1.0020922558028398 0.3293064022221736 0.0
H H 0.3328483655269445 -1.0378622558028399 0.31907640222217365 0.0
C C 0.22260038225710857 -0.9610570322426942 0.27523980812145893 0.0
H H 0.2509103822571086 -0.9695270322426942 0.22809980812145894 0.0
C C 0.1364110670236953 -0.9148099432106055 0.2886104941751286 0.0
C C 0.10354147286375931 -0.9058579042343883 0.3532719603177968 0.0
H H 0.04356147286375932 -0.8714279042343884 0.3651319603177968 0.0
C C 0.12766757279232396 -0.9425688604707309 0.4080090331721271 0.0
H H 0.09591757279232398 -0.9359488604707308 0.45508903317212707 0.0
