_cell_length_a 8.39304
_cell_length_b 22.23511
_cell_length_c 18.74218
_cell_angle_alpha 90.0
_cell_angle_beta 94.0312
_cell_angle_gamma 90.0
_symmetry_space_group_name_H-M         'P 1'
_symmetry_Int_Tables_number            1
loop_
_symmetry_equiv_pos_as_xyz
   'x, y, z'
                         
loop_
_atom_site_label
_atom_site_type_symbol
_atom_site_fract_x 
_atom_site_fract_y
_atom_site_fract_z
_atom_site_charge
Cd Cd 0.3014891831967744 0.5505486409805739 0.9880066821315133 0.0
O O 0.432281162037291 0.4662952811406007 1.058521003471727 0.0
O O 0.22281107227841984 0.5068241825157996 1.0797366844278735 0.0
O O 0.8924308059239321 0.7699796779400525 1.1562110444186122 0.0
O O 0.41951050433982223 0.7776598746325615 1.2714785008897906 0.0
N N 0.45753023818617317 0.6158171876346329 1.072271558977753 0.0
N N 0.6247119767693089 0.7545237582188025 1.197892668975342 0.0
C C 0.29844685046817737 0.47235074801275034 1.0936438031399742 0.0
C C 0.27303853413511053 0.4244372023575839 1.1409049431550615 0.0
C C 0.1292718529944992 0.42322396705734333 1.17738423108474 0.0
H H 0.05436185299449916 0.4540839670573434 1.1647442310847398 0.0
C C 0.10740249978134574 0.3794676990234144 1.2392260881841373 0.0
H H 0.008492499781345721 0.3800276990234144 1.2608860881841375 0.0
C C 0.20568880993692726 0.3430360912468907 1.257108755738998 0.0
C C 0.35771314272963955 0.3347554064584332 1.2154205496131478 0.0
C C 0.39779261001862737 0.3767912309353873 1.1607179744534806 0.0
H H 0.4954026100186275 0.37476123093538727 1.1381879744534806 0.0
C C 0.5600296975123288 0.784841770752829 1.2486011041304672 0.0
C C 0.775121543128119 0.7919412072254369 1.2000329617894463 0.0
C C 0.5498853737394603 0.6684247949550686 1.0389609128648822 0.0
H H 0.5782953737394603 0.6656947949550688 0.9908309128648822 0.0
C C 0.6066464229647439 0.7077665741276831 1.0902553273519948 0.0
H H 0.6774564229647438 0.7361365741276831 1.0717153273519948 0.0
C C 0.5950921902660736 0.7159064970909438 1.153120439103912 0.0
C C 0.486725959427737 0.6703352157499709 1.1722280312206157 0.0
H H 0.458415959427737 0.6705052157499709 1.220388031220616 0.0
C C 0.4022843643598188 0.6292755688284537 1.1283303840936272 0.0
H H 0.3287943643598188 0.6007455688284538 1.1446903840936273 0.0
O O 0.2702913722131059 0.6363085763637386 0.9130095689691534 0.0
O O 0.07750409445611274 0.6186040965156646 0.9784156177363037 0.0
O O -0.15051294305925034 0.3396445067940407 0.7635727718908856 0.0
O O 0.337323461722447 0.3733911839444722 0.6734337860998266 0.0
N N 0.12067577639265932 0.37343283780346165 0.7430324662431137 0.0
N N 0.2085612901943074 0.49302260770476836 0.9017659701708882 0.0
C C 0.15138121162930493 0.6470568637311782 0.9366029777704288 0.0
C C 0.03623639501569732 0.7042299833664809 0.90768308462039 0.0
C C -0.0897467643829183 0.7147998559035167 0.9402719878423845 0.0
H H -0.12395676438291832 0.6900698559035168 0.9775319878423844 0.0
C C 0.20173300050081666 0.26826621519089117 0.5826447030824887 0.0
H H 0.30014300050081666 0.27713621519089116 0.5629047030824887 0.0
C C 0.15695279823557076 0.2997346316617127 0.6508322624492995 0.0
C C 0.004719023612298729 0.2850296123138193 0.6745172204368441 0.0
C C 0.10593667434502031 0.7480944798521004 0.8533972054512153 0.0
H H 0.20642667434502035 0.7406644798521004 0.8346572054512154 0.0
C C 0.22725483568490798 0.3484338797911938 0.6790216284335169 0.0
C C -0.015040237773647163 0.33727509389194976 0.7304061144843138 0.0
C C 0.25373659588015784 0.5108839680803784 0.8298113705527834 0.0
H H 0.3092565958801578 0.5466539680803785 0.8195813705527835 0.0
C C 0.22409161914588774 0.4697636455027673 0.7718869254938477 0.0
H H 0.2524016191458877 0.47823364550276726 0.7247469254938479 0.0
C C 0.15203566879452568 0.40727081658987063 0.7896166141387843 0.0
C C 0.10124179675976631 0.4003118052052742 0.8545431125201038 0.0
H H 0.04126179675976631 0.3658818052052742 0.8664031125201038 0.0
C C 0.14406276185619435 0.4405707918935071 0.9019058623570402 0.0
H H 0.11231276185619435 0.43395079189350705 0.9489858623570402 0.0
Cd Cd -0.3177415756720983 1.0592133924835103 -0.47945539067226156 0.0
O O -0.4289215255578513 0.9542236592971386 -0.5544046706598926 0.0
O O -0.21661059729511342 1.002061833352606 -0.5742238405855995 0.0
O O -0.8880367680849365 1.2671746944077265 -0.6690826175125918 0.0
O O -0.4278801094809596 1.2649656439370198 -0.7618506349895425 0.0
N N -0.4558732779059229 1.1224682405891881 -0.5718995691616744 0.0
N N -0.6421428192234486 1.2528450306072847 -0.6958909391470751 0.0
C C -0.29847109796879356 0.961950624580423 -0.5938162195557584 0.0
C C -0.2827818608460052 0.9156291744464864 -0.6426115369508477 0.0
C C -0.13965686639304944 0.9196231100080261 -0.6802279920501014 0.0
H H -0.06474686639304947 0.9504831100080263 -0.6675879920501014 0.0
C C -0.10369126955820049 0.8785295688613677 -0.7357805804002869 0.0
H H -0.004781269558200471 0.8790895688613677 -0.757440580400287 0.0
C C -0.1934882054028886 0.8427783319016793 -0.7481169800674093 0.0
C C -0.37225380333777536 0.8385328909484606 -0.7235640769527462 0.0
C C -0.4053267931230303 0.8749136294804796 -0.6608754237035032 0.0
H H -0.5029367931230304 0.8728836294804796 -0.6383454237035032 0.0
C C -0.5541144269460674 1.2847587832068812 -0.7481441663720556 0.0
C C -0.8024445104494495 1.283565026293904 -0.6990139810807245 0.0
C C -0.5442978107885231 1.1561879261222043 -0.5431940842239937 0.0
H H -0.5727078107885232 1.1534579261222042 -0.49506408422399384 0.0
C C -0.6233654229242729 1.206073162608271 -0.5791300111993317 0.0
H H -0.6941754229242729 1.2344431626082712 -0.5605900111993316 0.0
C C -0.6003014831386183 1.2096134476046443 -0.6550559283367318 0.0
C C -0.4812407492253984 1.1702060135398127 -0.6826136950123136 0.0
H H -0.4529307492253984 1.1703760135398127 -0.7307736950123136 0.0
C C -0.4211887567651646 1.1188457144873882 -0.6276367554455383 0.0
H H -0.34769875676516454 1.0903157144873883 -0.6439967554455385 0.0
O O -0.27601748056337383 1.138170565151537 -0.4062288556679905 0.0
O O -0.07417259238039758 1.1250484425405267 -0.48405778895967877 0.0
O O 0.16103314820235093 0.833588983638883 -0.2619987685863839 0.0
O O -0.34247763051456936 0.8767946635721843 -0.16808144287959406 0.0
N N -0.10886656115118701 0.8731008058754348 -0.2297583591004572 0.0
N N -0.24270371423400103 0.990597133012174 -0.40149400740750135 0.0
C C -0.16063634120399062 1.1569811229846934 -0.43598477106854366 0.0
C C -0.05159723856244978 1.2011065248367003 -0.4109356341074037 0.0
C C 0.09625684065559605 1.2125415082344797 -0.4363721328668553 0.0
H H 0.13046684065559605 1.1878115082344798 -0.4736321328668553 0.0
C C -0.21259034223333034 0.7720387404418382 -0.08783441581154702 0.0
H H -0.3110003422333303 0.7809087404418382 -0.06809441581154704 0.0
C C -0.14279011018004806 0.7947045014248607 -0.14148355760553782 0.0
C C 0.00924290696720309 0.7861049151834855 -0.16557150810683696 0.0
C C -0.11201837281728445 1.2389472069190444 -0.3585201452668871 0.0
H H -0.21250837281728444 1.2315172069190445 -0.3397801452668871 0.0
C C -0.2120030431307376 0.8541979469359978 -0.1793735291677434 0.0
C C 0.024374535782437142 0.8273723912027655 -0.23748099526895822 0.0
C C -0.2540094834352616 1.0016778852590493 -0.33127738943093205 0.0
H H -0.30952948343526154 1.0374478852590494 -0.32104738943093214 0.0
C C -0.22501856802668005 0.970180799836285 -0.2659765200152474 0.0
H H -0.25332856802668 0.978650799836285 -0.21883652001524745 0.0
C C -0.14905162577860726 0.9054936143932629 -0.2920903215686478 0.0
C C -0.10369612489734827 0.9012505889415229 -0.3604721266276874 0.0
H H -0.043716124897348274 0.8668205889415229 -0.37233212662768744 0.0
C C -0.15748906612478164 0.9415765920361959 -0.4074401795958821 0.0
H H -0.12573906612478164 0.934956592036196 -0.454520179595882 0.0
Cd Cd -0.31185731920216886 -0.5622148027150782 -0.9827126483476845 0.0
O O -0.4239972982624579 -0.4658817419640491 -1.0588527902149882 0.0
O O -0.20972104893579682 -0.5063540187330763 -1.0857858735801147 0.0
O O -0.9067962208355856 -0.7703759763874903 -1.1626790294836367 0.0
O O -0.4215174953098221 -0.7649318035659896 -1.2679919024188278 0.0
N N -0.44923435576895304 -0.6248991810649812 -1.066309437229063 0.0
N N -0.6431457618592826 -0.7525309643965671 -1.1996772124875748 0.0
C C -0.3014206647171431 -0.46454557980062555 -1.096096270404933 0.0
C C -0.2895293514339156 -0.4213227907522386 -1.1401963426795163 0.0
C C -0.1183244058726079 -0.41856171145178767 -1.1836455932832215 0.0
H H -0.043414405872607864 -0.4494217114517877 -1.1710055932832215 0.0
C C -0.08411294676708486 -0.3810671959214952 -1.2336666085231631 0.0
H H 0.01479705323291516 -0.3816271959214952 -1.2553266085231631 0.0
C C -0.1941627871185012 -0.333786652429464 -1.2471338387105773 0.0
C C -0.36263983268738986 -0.34127789501241224 -1.2120031396873432 0.0
C C -0.3966103910804376 -0.37594970922949844 -1.160679254984612 0.0
H H -0.49422039108043764 -0.37391970922949846 -1.1381492549846122 0.0
C C -0.5392389445245053 -0.7794433086734724 -1.2487005340632615 0.0
C C -0.7925464589202018 -0.7871908922959636 -1.2044914735150292 0.0
C C -0.5609212035951232 -0.6598497911940087 -1.047028716856963 0.0
H H -0.5893312035951233 -0.6571197911940088 -0.9988987168569632 0.0
C C -0.6282161950094681 -0.705797373570126 -1.0785483012104848 0.0
H H -0.699026195009468 -0.734167373570126 -1.0600083012104848 0.0
C C -0.592371104406203 -0.7086700434485185 -1.1525639480979994 0.0
C C -0.46433771951322267 -0.6715858775117336 -1.1835807573142088 0.0
H H -0.43602771951322267 -0.6717558775117336 -1.2317407573142087 0.0
C C -0.40104194676282073 -0.62887943147804 -1.1280305228429646 0.0
H H -0.3275519467628207 -0.6003494314780401 -1.1443905228429645 0.0
O O -0.25546284094462773 -0.643600958364508 -0.9013459149118773 0.0
O O -0.08257435672583997 -0.6165430712634016 -0.9876304728372328 0.0
O O 0.14241182827085858 -0.3384327808683323 -0.7657136747803422 0.0
O O -0.34607570849516706 -0.3721694263095646 -0.679998793449646 0.0
N N -0.11270317722150042 -0.3649344944436848 -0.7374995680701938 0.0
N N -0.224818195102165 -0.498477532586093 -0.8935110132579734 0.0
C C -0.14575546561169067 -0.655228183061643 -0.9295287840556734 0.0
C C -0.06064803777366205 -0.7074008981555109 -0.9031318565759682 0.0
C C 0.1115347645456622 -0.7205577393490816 -0.9376327808754751 0.0
H H 0.1457447645456622 -0.6958277393490817 -0.974892780875475 0.0
C C -0.20541592341908546 -0.2716439984023792 -0.5825325013957323 0.0
H H -0.3038259234190855 -0.2805139984023792 -0.5627925013957323 0.0
C C -0.15121927391404003 -0.2945595706968755 -0.6481902430657135 0.0
C C -0.002789244125277032 -0.2910254690418534 -0.6737721830035606 0.0
C C -0.11594301502280374 -0.7478718276071956 -0.8501625279493977 0.0
H H -0.2164330150228038 -0.7404418276071956 -0.8314225279493977 0.0
C C -0.22401307318184852 -0.35595185588458833 -0.6808890264614736 0.0
C C 0.043353418661914604 -0.3340797914782803 -0.7323516739066221 0.0
C C -0.2470270079974253 -0.5083548505187354 -0.8299108325065437 0.0
H H -0.3025470079974253 -0.5441248505187356 -0.8196808325065438 0.0
C C -0.22612472179800797 -0.4683575200825543 -0.7735476248809954 0.0
H H -0.25443472179800797 -0.4768275200825543 -0.7264076248809955 0.0
C C -0.1381286255461145 -0.4131518767889857 -0.7809381515115658 0.0
C C -0.0998636881496366 -0.40857703282085783 -0.8639431468599101 0.0
H H -0.039883688149636616 -0.3741470328208578 -0.8758031468599102 0.0
C C -0.12583402572695154 -0.4479153801551477 -0.9072826273218647 0.0
H H -0.09408402572695153 -0.44129538015514763 -0.9543626273218647 0.0
Cd Cd 0.30838094049124354 -1.0610255887065967 0.4876751768857664 0.0
O O 0.4474011890622234 -0.9573369266524631 0.5564424354040561 0.0
O O 0.21127333100489087 -1.0009233205809804 0.57226151670622 0.0
O O 0.8788410290068236 -1.2721567658761554 0.6600441627111039 0.0
O O 0.4288939762885306 -1.2720380117638894 0.7710188130880214 0.0
N N 0.4373031501319091 -1.1222896381770162 0.5616188575938607 0.0
N N 0.627100070573041 -1.2585251033386 0.6962349004758068 0.0
C C 0.3200850002372299 -0.9662550796838807 0.5841373337848262 0.0
C C 0.26815488576776975 -0.9167527088840678 0.6415713813788883 0.0
C C 0.12374990490850676 -0.9192339286572999 0.6728632213256917 0.0
H H 0.04883990490850677 -0.9500939286573001 0.6602232213256917 0.0
C C 0.0805446989882479 -0.880885277963976 0.726254696644574 0.0
H H -0.018365301011752103 -0.881445277963976 0.747914696644574 0.0
C C 0.2081895661648889 -0.8430938591784234 0.7449681546463851 0.0
C C 0.363415827795546 -0.8409071693884752 0.7179900172393997 0.0
C C 0.37513616702882724 -0.8800325570912816 0.6615050697053535 0.0
H H 0.4727461670288274 -0.8780025570912816 0.6389750697053536 0.0
C C 0.5495795048149417 -1.2789637447927422 0.758230690079045 0.0
C C 0.7960641766351795 -1.2843625080380612 0.7046876706530978 0.0
C C 0.5420141543895622 -1.1605258723217164 0.5443561550707603 0.0
H H 0.5704241543895623 -1.1577958723217163 0.49622615507076046 0.0
C C 0.6258518333049351 -1.202557465383524 0.5904872367771418 0.0
H H 0.6966618333049353 -1.2309274653835243 0.5719472367771418 0.0
C C 0.580240578524976 -1.2133172919224149 0.6555508028934041 0.0
C C 0.475168732205875 -1.1693601912471814 0.6771447247823547 0.0
H H 0.44685873220587496 -1.1695301912471814 0.7253047247823546 0.0
C C 0.40789668505656257 -1.130214244643479 0.6340515213466441 0.0
H H 0.33440668505656257 -1.101684244643479 0.6504115213466444 0.0
O O 0.2557236484427494 -1.1465893302516006 0.4087295229132245 0.0
O O 0.08387604726784179 -1.1228320822890974 0.49045506466075206 0.0
O O -0.14015337553487575 -0.8375674374081803 0.26802128369093103 0.0
O O 0.33645139573843785 -0.8800736484730607 0.17967076681212843 0.0
N N 0.10101317498768198 -0.8661065346170075 0.24087005974263115 0.0
N N 0.22363641874086607 -0.9881285684780854 0.4010661127702644 0.0
C C 0.13386722835403872 -1.1564869472672268 0.428636138936341 0.0
C C 0.05137744503575513 -1.2126846294988176 0.40941545054028683 0.0
C C -0.08669344932660751 -1.2191822826448788 0.4299158329490241 0.0
H H -0.1209034493266075 -1.194452282644879 0.46717583294902404 0.0
C C 0.20018849266787433 -0.7623779018542416 0.08178539903736144 0.0
H H 0.29859849266787436 -0.7712479018542416 0.06204539903736146 0.0
C C 0.13327284857970056 -0.8070837635103624 0.14145271297868314 0.0
C C 0.008005593220710528 -0.7885562346739841 0.17649275954202034 0.0
C C 0.09640945010478094 -1.240071087340148 0.3468233655115188 0.0
H H 0.19689945010478094 -1.2326410873401479 0.32808336551151884 0.0
C C 0.2155455395931618 -0.8573787785591107 0.17783702521424277 0.0
C C -0.027098091452513774 -0.8380409931877694 0.2217831158153454 0.0
C C 0.2580343141304844 -1.0016625246469004 0.323117949440167 0.0
H H 0.31355431413048435 -1.0374325246469005 0.312887949440167 0.0
C C 0.20680717080416766 -0.9629756679575873 0.2741901751988285 0.0
H H 0.23511717080416764 -0.9714456679575872 0.2270501751988285 0.0
C C 0.1529370156341299 -0.9066852502321836 0.2936928262663807 0.0
C C 0.09225382630917352 -0.8998660347892614 0.353497032582629 0.0
H H 0.03227382630917351 -0.8654360347892615 0.36535703258262897 0.0
C C 0.13793048139719016 -0.9422602659871673 0.4131591303067275 0.0
H H 0.10618048139719015 -0.9356402659871673 0.46023913030672753 0.0
