_cell_length_a 8.39304
_cell_length_b 22.23511
_cell_length_c 18.74218
_cell_angle_alpha 90.0
_cell_angle_beta 94.0312
_cell_angle_gamma 90.0
_symmetry_space_group_name_H-M         'P 1'
_symmetry_Int_Tables_number            1
loop_
_symmetry_equiv_pos_as_xyz
   'x, y, z'
                         
loop_
_atom_site_label
_atom_site_type_symbol
_atom_site_fract_x 
_atom_site_fract_y
_atom_site_fract_z
_atom_site_charge
Cd Cd 0.3139536146739068 0.5516458010611163 0.9832267938529486 0.0
O O 0.4445194769543664 0.46709285934592976 1.0623486145958712 0.0
O O 0.1869568872137687 0.5081093214825881 1.0752163830224637 0.0
O O 0.8993969683668689 0.7660228357132867 1.1669982067694409 0.0
O O 0.43272111876983105 0.7693990247364089 1.2590326192515202 0.0
N N 0.47673725450547594 0.628317359013413 1.0687827163897878 0.0
N N 0.640699821857316 0.7566747028569921 1.208393976973438 0.0
C C 0.3004284414477084 0.46350748058319585 1.0958443783800582 0.0
C C 0.2536720240162735 0.42113887986675486 1.147065344044021 0.0
C C 0.12468976477102452 0.4276347268155226 1.1836058072756221 0.0
H H 0.04977976477102446 0.4584947268155226 1.170965807275622 0.0
C C 0.09843308289660467 0.38190153353889356 1.2389815183206243 0.0
H H -0.0004769171033953215 0.38246153353889356 1.2606415183206243 0.0
C C 0.2007349731266264 0.33271766189460167 1.2455159367384427 0.0
C C 0.35017843103325846 0.334580739138306 1.214141176926865 0.0
C C 0.40297954370794414 0.3740293310480454 1.166808331221309 0.0
H H 0.5005895437079443 0.37199933104804545 1.144278331221309 0.0
C C 0.546960240606491 0.7848836152619891 1.2442879613713698 0.0
C C 0.784492335682657 0.7933985197537237 1.198349021873059 0.0
C C 0.5633628242328228 0.6633487792916375 1.0446904499524947 0.0
H H 0.5917728242328228 0.6606187792916376 0.9965604499524947 0.0
C C 0.6179213095349134 0.7005261094024496 1.087619498926032 0.0
H H 0.6887313095349133 0.7288961094024494 1.069079498926032 0.0
C C 0.5981956913142553 0.7129869735142315 1.1572141530299518 0.0
C C 0.47449047745363265 0.6655894827456271 1.1822228234267447 0.0
H H 0.4461804774536327 0.6657594827456271 1.2303828234267449 0.0
C C 0.4086138506668351 0.6265146335115419 1.1421169090012617 0.0
H H 0.3351238506668351 0.597984633511542 1.1584769090012617 0.0
O O 0.2795762198403274 0.63920659826335 0.9020210099322973 0.0
O O 0.08920779345320845 0.6256161741219921 0.9845251943821738 0.0
O O -0.15312365378120868 0.34245878491726955 0.7738208117085273 0.0
O O 0.32085807751037615 0.37027004371852246 0.6722995847360099 0.0
N N 0.11406548205040488 0.36968806860830883 0.7359787349717406 0.0
N N 0.2082037086139335 0.49074941290245594 0.9012597873962856 0.0
C C 0.1552054743984929 0.6538473527591528 0.9380206593084321 0.0
C C 0.04209840597954579 0.7117537280063383 0.9175957776032709 0.0
C C -0.09616748088423861 0.7185571154897348 0.9347977922590461 0.0
H H -0.13037748088423862 0.6938271154897349 0.9720577922590461 0.0
C C 0.20032977245696332 0.2740083573581693 0.593941564605451 0.0
H H 0.2987397724569633 0.2828783573581693 0.574201564605451 0.0
C C 0.12700557488047265 0.3046913497800943 0.6424102307343244 0.0
C C -0.009226755473176864 0.2902891078791888 0.6724109771959228 0.0
C C 0.10442682490591432 0.7358983104404564 0.8508514658834404 0.0
H H 0.20491682490591434 0.7284683104404563 0.8321114658834404 0.0
C C 0.2331463051531388 0.3532357330132775 0.6826328898395014 0.0
C C -0.051429710925492124 0.3251222589027602 0.7253925349974406 0.0
C C 0.25310446162268935 0.5018236502853164 0.8325852216529237 0.0
H H 0.30862446162268936 0.5375936502853165 0.8223552216529237 0.0
C C 0.21806288587650602 0.4705505281294031 0.7786430271431475 0.0
H H 0.246372885876506 0.4790205281294031 0.7315030271431475 0.0
C C 0.12788610684096582 0.4111437649895016 0.787220511552348 0.0
C C 0.10865984710867721 0.40160757764942484 0.8558373142877516 0.0
H H 0.04867984710867724 0.3671775776494249 0.8676973142877517 0.0
C C 0.1599576823724053 0.4430947290971673 0.9030511119000035 0.0
H H 0.12820768237240526 0.4364747290971673 0.9501311119000035 0.0
Cd Cd -0.2973307378262266 1.0646916391414984 -0.4812728169531378 0.0
O O -0.449789335301406 0.9558560610157343 -0.5604884697224204 0.0
O O -0.2110359026069746 1.0031841701118172 -0.5881019204031355 0.0
O O -0.9083393253191618 1.266253679370565 -0.6590911745931775 0.0
O O -0.403277451391116 1.2746341433900585 -0.7714339402413174 0.0
N N -0.4445796273110348 1.1221880540511953 -0.5684143497203655 0.0
N N -0.6484665178416379 1.259428738871945 -0.6994131754541629 0.0
C C -0.2927929058001055 0.9669285363422876 -0.5820313750126703 0.0
C C -0.29636469361549544 0.9145282852125873 -0.6460402801085651 0.0
C C -0.13409474403743993 0.9170337729105948 -0.6751570023816252 0.0
H H -0.05918474403743993 0.9478937729105951 -0.6625170023816253 0.0
C C -0.10445085022435152 0.8866438512258937 -0.7297919064190794 0.0
H H -0.005540850224351501 0.8872038512258937 -0.7514519064190794 0.0
C C -0.20233548614245447 0.8447103196817712 -0.7414161852212791 0.0
C C -0.3610212661144265 0.8357029982711355 -0.71138791167906 0.0
C C -0.38730426692253805 0.8724077380087187 -0.6737965169201432 0.0
H H -0.48491426692253814 0.8703777380087188 -0.6512665169201431 0.0
C C -0.5582602219056646 1.2869223474516076 -0.7482675553159936 0.0
C C -0.7965128550738447 1.2826473214663552 -0.6932386552766455 0.0
C C -0.575181414599336 1.160772879099027 -0.5515114485338106 0.0
H H -0.6035914145993362 1.158042879099027 -0.5033814485338107 0.0
C C -0.6203761589830523 1.209262441008877 -0.5886554555109086 0.0
H H -0.6911861589830525 1.2376324410088773 -0.5701154555109085 0.0
C C -0.5987305235415129 1.2058560178404063 -0.6505732941696465 0.0
C C -0.4615917438349221 1.1754004913384677 -0.6780571785165551 0.0
H H -0.4332817438349221 1.175570491338468 -0.7262171785165551 0.0
C C -0.42844076199271725 1.1258240641396753 -0.6236728374140169 0.0
H H -0.35495076199271725 1.0972940641396753 -0.6400328374140172 0.0
O O -0.25096875148439707 1.1464599036662746 -0.4003742576497349 0.0
O O -0.10932831378751268 1.123687640845112 -0.4809917210858145 0.0
O O 0.15541200505773328 0.8339350805519274 -0.26423038982253194 0.0
O O -0.34084246674784385 0.8753569846568451 -0.18142884367806206 0.0
N N -0.11852547077330501 0.8705469019679185 -0.2400008062910618 0.0
N N -0.21778067536212437 0.9954114669606019 -0.3983276906303792 0.0
C C -0.13851053901125374 1.1498639139229978 -0.445554410065209 0.0
C C -0.05148925686385869 1.202287690267553 -0.4154494420100859 0.0
C C 0.08035062657827702 1.2145430372509411 -0.4423585760989759 0.0
H H 0.11456062657827702 1.1898130372509412 -0.4796185760989759 0.0
C C -0.189882331826234 0.7617029966683344 -0.09294730289790736 0.0
H H -0.28829233182623404 0.7705729966683345 -0.07320730289790738 0.0
C C -0.12031835283120855 0.8016073536315234 -0.1438901618937864 0.0
C C 0.0021808992120166274 0.7917813448261912 -0.17581917281256168 0.0
C C -0.09980567110847742 1.245212707143513 -0.3564166340754095 0.0
H H -0.20029567110847743 1.2377827071435132 -0.33767663407540954 0.0
C C -0.21347553444917758 0.8563131496940565 -0.17588349693465688 0.0
C C 0.028794623684798855 0.8367751185058693 -0.2333623190290721 0.0
C C -0.2588114587704599 1.0014580157304787 -0.32354572979722696 0.0
H H -0.31433145877046 1.0372280157304787 -0.313315729797227 0.0
C C -0.22204617659501308 0.963661218056469 -0.26579630425577966 0.0
H H -0.2503561765950131 0.972131218056469 -0.2186563042557797 0.0
C C -0.12655451715106386 0.9133385291030894 -0.28520785346354643 0.0
C C -0.09558932118364312 0.9000867388638144 -0.35431240066719966 0.0
H H -0.03560932118364313 0.8656567388638144 -0.3661724006671997 0.0
C C -0.12560647393800373 0.9417696207749859 -0.4127817782997339 0.0
H H -0.09385647393800374 0.935149620774986 -0.4598617782997339 0.0
Cd Cd -0.3092329258149933 -0.554917767873259 -0.9880066375429969 0.0
O O -0.44785107657736145 -0.4589502569541151 -1.0579812412604255 0.0
O O -0.21639683385392788 -0.5013134733716251 -1.0751115727190599 0.0
O O -0.8905617677614273 -0.7765003365840515 -1.1688356818784367 0.0
O O -0.4015316109648471 -0.7670722404187413 -1.2687498705247646 0.0
N N -0.475670967653821 -0.6265263145715025 -1.0741058901588485 0.0
N N -0.6382921070262016 -0.7526925984902681 -1.2026943345387717 0.0
C C -0.32760187934435536 -0.4726894556799028 -1.0897888303523056 0.0
C C -0.2725167469641604 -0.41376136221945714 -1.1438394701711088 0.0
C C -0.12773209076165654 -0.4188420920608847 -1.1821878114354119 0.0
H H -0.05282209076165651 -0.44970209206088474 -1.1695478114354116 0.0
C C -0.08928725740571652 -0.3806938295542218 -1.232013138600752 0.0
H H 0.009622742594283492 -0.3812538295542218 -1.253673138600752 0.0
C C -0.2086353198588845 -0.3342542523898708 -1.2437975259241096 0.0
C C -0.3398905767509548 -0.32954392189208104 -1.2088899913543063 0.0
C C -0.38022386834805855 -0.380300224879161 -1.1743517454545094 0.0
H H -0.47783386834805863 -0.378270224879161 -1.1518217454545092 0.0
C C -0.5627223357815124 -0.7834262810451164 -1.2482888320809555 0.0
C C -0.8119549111374689 -0.7916481189790432 -1.2054237144226414 0.0
C C -0.5609886778118849 -0.6547542213613466 -1.0427651643792877 0.0
H H -0.5893986778118849 -0.6520242213613467 -0.9946351643792878 0.0
C C -0.635612291505688 -0.7111409576404104 -1.0785827821138663 0.0
H H -0.706422291505688 -0.7395109576404103 -1.0600427821138663 0.0
C C -0.5713612218248029 -0.7144473547948755 -1.161248106100578 0.0
C C -0.49331170477170644 -0.6688471616375455 -1.1825132761496555 0.0
H H -0.4650017047717065 -0.6690171616375455 -1.2306732761496557 0.0
C C -0.4113846465861121 -0.6201040693548442 -1.125772749587765 0.0
H H -0.3378946465861121 -0.5915740693548441 -1.1421327495877651 0.0
O O -0.2943074408900853 -0.6405993738046528 -0.9110650323415678 0.0
O O -0.09328881954522975 -0.6191520791700071 -0.9783559346617327 0.0
O O 0.15727681941080157 -0.3347395888582583 -0.7638591707511536 0.0
O O -0.3214677913921517 -0.3772747712346996 -0.6734590258479441 0.0
N N -0.11347251341056962 -0.3652478800931528 -0.7348563062257557 0.0
N N -0.22429657668380285 -0.492756998064284 -0.8876087692655397 0.0
C C -0.1420095603919873 -0.6544318854201495 -0.9453907652573506 0.0
C C -0.06055374307647547 -0.7058414995173388 -0.9162192678485769 0.0
C C 0.11003969184181818 -0.7212736123678876 -0.9395608030158125 0.0
H H 0.14424969184181818 -0.6965436123678876 -0.9768208030158124 0.0
C C -0.17511577445293092 -0.2616243208960762 -0.5829479707375373 0.0
H H -0.2735257744529309 -0.2704943208960762 -0.5632079707375374 0.0
C C -0.15571262062924854 -0.30020504079629956 -0.6417080514104544 0.0
C C 0.001433976382541503 -0.28627316546874004 -0.6737924113486153 0.0
C C -0.1004728761028112 -0.7496020077888235 -0.8550405090782159 0.0
H H -0.20096287610281124 -0.7421720077888234 -0.836300509078216 0.0
C C -0.22300922903055923 -0.3479977831034242 -0.6793485169533534 0.0
C C 0.050697808191067985 -0.3323247449433871 -0.733136906450179 0.0
C C -0.2783572756361627 -0.5042720595578831 -0.8294269467804455 0.0
H H -0.33387727563616265 -0.5400420595578832 -0.8191969467804455 0.0
C C -0.23117247534402038 -0.4613542871064967 -0.7699389514091223 0.0
H H -0.25948247534402036 -0.46982428710649665 -0.7227989514091223 0.0
C C -0.11950997691780926 -0.40698989895728266 -0.78168065278401 0.0
C C -0.07705987365788645 -0.4043272973943474 -0.852472509653574 0.0
H H -0.017079873657886456 -0.3698972973943474 -0.864332509653574 0.0
C C -0.13466888626199888 -0.45081163483388076 -0.9061793570692876 0.0
H H -0.10291888626199885 -0.44419163483388074 -0.9532593570692877 0.0
Cd Cd 0.3319126557858904 -1.0584600687475567 0.4833117556201013 0.0
O O 0.44253678002797764 -0.9608879935394997 0.5604588700711812 0.0
O O 0.19066083547815788 -1.0080326774132922 0.5857709141575357 0.0
O O 0.8948201044417027 -1.2689359126769406 0.6643436790079406 0.0
O O 0.42536884693107047 -1.2689479593984367 0.7587269982256639 0.0
N N 0.4654680049011566 -1.1163300895681596 0.5688758443921548 0.0
N N 0.633145636669562 -1.2541865001396781 0.7075617125820538 0.0
C C 0.30949790440508973 -0.9590430490814391 0.5868568427548313 0.0
C C 0.2865207646534598 -0.9175145848368828 0.6403319035744618 0.0
C C 0.113587874590135 -0.9208390166613578 0.6747131632090184 0.0
H H 0.038677874590135 -0.951699016661358 0.6620731632090184 0.0
C C 0.10664825321910801 -0.8852839199852488 0.725792903067479 0.0
H H 0.007738253219107982 -0.8858439199852488 0.747452903067479 0.0
C C 0.21999729923670414 -0.8414494230209337 0.7462378895571425 0.0
C C 0.35595745278187957 -0.8318931408157596 0.7198234854715371 0.0
C C 0.3990243543428965 -0.8733526734881384 0.6750203904186999 0.0
H H 0.4966343543428966 -0.8713226734881384 0.6524903904186998 0.0
C C 0.5519460837446898 -1.2817473460547268 0.7445157622658768 0.0
C C 0.7898217506881706 -1.2914214011282448 0.6950639044584759 0.0
C C 0.536472092690976 -1.1686857149451897 0.543230085324992 0.0
H H 0.564882092690976 -1.1659557149451896 0.4951000853249921 0.0
C C 0.6337226899136992 -1.201127719516062 0.589921327616339 0.0
H H 0.7045326899136993 -1.2294977195160621 0.5713813276163389 0.0
C C 0.5692670714873499 -1.2144446437443672 0.6608221618976317 0.0
C C 0.49633269866655505 -1.1688036950875977 0.677407893248846 0.0
H H 0.468022698666555 -1.1689736950875977 0.725567893248846 0.0
C C 0.4246634271052315 -1.1270713440804938 0.6262196876992426 0.0
H H 0.3511734271052315 -1.0985413440804939 0.6425796876992428 0.0
O O 0.2770748842516489 -1.1366297018997549 0.40148686327030136 0.0
O O 0.0721460413000668 -1.1204682478562296 0.48600129720511104 0.0
O O -0.1451326944618845 -0.842556513003545 0.2574370092388332 0.0
O O 0.3317545922870895 -0.8730711657799277 0.17018555855226558 0.0
N N 0.10743971659581385 -0.8764754040456118 0.23143588442022808 0.0
N N 0.24406807549794204 -0.993549141678037 0.3973496305816584 0.0
C C 0.12336248056298077 -1.1563357469406605 0.426797069219301 0.0
C C 0.040273281469312125 -1.2105539533130947 0.41651865497148677 0.0
C C -0.09614067418192239 -1.215849255502864 0.4304693317729397 0.0
H H -0.1303506741819224 -1.191119255502864 0.46772933177293974 0.0
C C 0.2030094889668403 -0.7721081550398483 0.09078700867086728 0.0
H H 0.3014194889668403 -0.7809781550398484 0.0710470086708673 0.0
C C 0.13930259438562295 -0.8023851818026302 0.14965841730036408 0.0
C C -0.01858871213650863 -0.7912231240877522 0.17967007584999295 0.0
C C 0.0839504275543397 -1.249578840830436 0.34934463690946504 0.0
H H 0.18444042755433968 -1.2421488408304362 0.33060463690946507 0.0
C C 0.20783156793635063 -0.8524794666704327 0.1850324642088658 0.0
C C -0.02763250959909752 -0.8262343563098598 0.23134764204197839 0.0
C C 0.26758146166979563 -1.0078662084069223 0.3195700707769913 0.0
H H 0.32310146166979564 -1.0436362084069224 0.3093400707769914 0.0
C C 0.22092092486506099 -0.9580433235873379 0.27528594455639227 0.0
H H 0.24923092486506102 -0.9665133235873379 0.2281459445563923 0.0
C C 0.1441179635458006 -0.9089489640987771 0.29053023272651085 0.0
C C 0.09630603841385084 -0.9047765110772993 0.3670686144599332 0.0
H H 0.03632603841385084 -0.8703465110772993 0.3789286144599332 0.0
C C 0.14208904550771814 -0.9442820919657697 0.41213181893907697 0.0
H H 0.11033904550771816 -0.9376620919657697 0.459211818939077 0.0
