_cell_length_a 8.39304
_cell_length_b 22.23511
_cell_length_c 18.74218
_cell_angle_alpha 90.0
_cell_angle_beta 94.0312
_cell_angle_gamma 90.0
_symmetry_space_group_name_H-M         'P 1'
_symmetry_Int_Tables_number            1
loop_
_symmetry_equiv_pos_as_xyz
   'x, y, z'
                         
loop_
_atom_site_label
_atom_site_type_symbol
_atom_site_fract_x 
_atom_site_fract_y
_atom_site_fract_z
_atom_site_charge
Cd Cd 0.3195380778409899 0.5647240017123945 0.9835239289655936 0.0
O O 0.443477128620734 0.46389220379887997 1.0618265725534257 0.0
O O 0.2184748245169172 0.5028660322499153 1.0791076616058017 0.0
O O 0.8811805713824978 0.7736754676925955 1.1593967831209606 0.0
O O 0.43613561709899773 0.7744876959654269 1.2621821676010712 0.0
N N 0.4713263552745489 0.6190374898005601 1.0613464838601974 0.0
N N 0.6379997630583013 0.7616749769116221 1.2005456271641541 0.0
C C 0.3055054139102541 0.46853855875767575 1.0857476042928886 0.0
C C 0.27992690032039014 0.42053161131347394 1.1438453985603152 0.0
C C 0.12326903013777357 0.4250617966260262 1.1704136220003867 0.0
H H 0.04835903013777353 0.4559217966260262 1.1577736220003867 0.0
C C 0.0927913312642576 0.38680053586921964 1.2249011858224357 0.0
H H -0.006118668735742425 0.38736053586921965 1.246561185822436 0.0
C C 0.22361486715665094 0.33409600387359234 1.2584097130338665 0.0
C C 0.3435413285989256 0.32949360385093984 1.22800552655461 0.0
C C 0.4079236553547052 0.37476184862207684 1.1684614149558972 0.0
H H 0.5055336553547053 0.3727318486220768 1.1459314149558972 0.0
C C 0.5405874986148842 0.779706464527208 1.2591188713357309 0.0
C C 0.8155342496072783 0.777845764923792 1.2047455565658443 0.0
C C 0.5370799032540763 0.6579373592805294 1.0479924808305194 0.0
H H 0.5654899032540763 0.6552073592805295 0.9998624808305197 0.0
C C 0.6462248333350967 0.7117824434092791 1.087579223089576 0.0
H H 0.7170348333350968 0.740152443409279 1.069039223089576 0.0
C C 0.5892745066169864 0.7009638939449538 1.1610260770441252 0.0
C C 0.45677654931443706 0.6643313864165755 1.1816532577679344 0.0
H H 0.4284665493144371 0.6645013864165755 1.2298132577679344 0.0
C C 0.4061277852968269 0.6245634117847231 1.1307306228831655 0.0
H H 0.3326377852968269 0.5960334117847231 1.1470906228831657 0.0
O O 0.2863487867154304 0.6405556751308183 0.9148584135689077 0.0
O O 0.07830149564014817 0.6243438244756896 0.9933176677263197 0.0
O O -0.12805786705110633 0.33919732764004645 0.7637546566205022 0.0
O O 0.34517920038182764 0.3764297419764085 0.6721546345543261 0.0
N N 0.12152488757256341 0.3756399176135008 0.7345484978993158 0.0
N N 0.23126134073259597 0.4951415534750066 0.8923169770787767 0.0
C C 0.15884548917328675 0.6448607335887783 0.944624981407076 0.0
C C 0.030683201582042224 0.7097223653992586 0.9141100929254671 0.0
C C -0.08933037764759384 0.7229180706548247 0.9430279671840627 0.0
H H -0.12354037764759389 0.6981880706548247 0.9802879671840625 0.0
C C 0.175187755738105 0.2704999611926762 0.5774682460437097 0.0
H H 0.273597755738105 0.27936996119267626 0.5577282460437096 0.0
C C 0.12206662268682775 0.306744966514985 0.6406875805981281 0.0
C C -0.010193016592710418 0.2918449713902958 0.6769388398197643 0.0
C C 0.09333301534072092 0.7363891935029957 0.8516940439398893 0.0
H H 0.19382301534072094 0.7289591935029957 0.8329540439398894 0.0
C C 0.23264601356690257 0.3555609921035583 0.6796667623712025 0.0
C C -0.031808085329717774 0.33015486706743324 0.7330518814591671 0.0
C C 0.2804611299065345 0.49953666527351903 0.8383838545704253 0.0
H H 0.3359811299065345 0.5353066652735192 0.8281538545704253 0.0
C C 0.24907476079909432 0.46593303794607965 0.7813636353768516 0.0
H H 0.2773847607990943 0.47440303794607963 0.7342236353768516 0.0
C C 0.13465881791153156 0.4098207690628987 0.7865995310609537 0.0
C C 0.11630353796675935 0.4047739676038431 0.8671012450812505 0.0
H H 0.05632353796675936 0.37034396760384314 0.8789612450812506 0.0
C C 0.14850049412791766 0.44992732102923055 0.9124604692267786 0.0
H H 0.11675049412791765 0.4433073210292305 0.9595404692267786 0.0
Cd Cd -0.30308884776883976 1.054806090380187 -0.48570535319129327 0.0
O O -0.45001174783739545 0.9584123253151696 -0.550933279638753 0.0
O O -0.18200078039347917 1.005223966602679 -0.5677331960630746 0.0
O O -0.8876681699834252 1.2714846370348925 -0.6527378590258596 0.0
O O -0.41821414602361096 1.2759461036555877 -0.7590863738741297 0.0
N N -0.4618164370964977 1.1141785391398054 -0.5649820014613148 0.0
N N -0.6207257812118715 1.2604935625383529 -0.6967624702371792 0.0
C C -0.3025955168141078 0.9639721992618147 -0.5797175185246634 0.0
C C -0.25759377195810984 0.9165004117155502 -0.636461963142482 0.0
C C -0.1255013099896879 0.930950418329916 -0.6817943716298983 0.0
H H -0.0505913099896879 0.9618104183299161 -0.6691543716298983 0.0
C C -0.09973675483174478 0.8822832401294878 -0.7416914864446071 0.0
H H -0.0008267548317447619 0.8828432401294878 -0.7633514864446072 0.0
C C -0.2073362427940522 0.8363225459924873 -0.7590866410584154 0.0
C C -0.3615145908236761 0.8279923273705314 -0.7185657829843356 0.0
C C -0.40722730382585465 0.8773001723850494 -0.6606338425498429 0.0
H H -0.5048373038258548 0.8752701723850494 -0.6381038425498429 0.0
C C -0.5266890555878364 1.2877549118288392 -0.7548542178433265 0.0
C C -0.8053557955123791 1.285644859602113 -0.6999061987781932 0.0
C C -0.5728922677426244 1.1651033483160878 -0.551851587186688 0.0
H H -0.6013022677426245 1.1623733483160876 -0.5037215871866881 0.0
C C -0.6162727638468105 1.215216967566261 -0.5903328568395656 0.0
H H -0.6870827638468107 1.243586967566261 -0.5717928568395656 0.0
C C -0.5707401532641807 1.2130885556013666 -0.6596732976854871 0.0
C C -0.4717210230252547 1.1711027649136523 -0.6710840805264887 0.0
H H -0.44341102302525465 1.1712727649136523 -0.7192440805264887 0.0
C C -0.4341306489876963 1.1275609639413753 -0.633546682968528 0.0
H H -0.3606406489876963 1.0990309639413753 -0.6499066829685282 0.0
O O -0.2694501380743288 1.1445504356993679 -0.4151710266439384 0.0
O O -0.1087428983345202 1.1236657291558405 -0.4904497457137732 0.0
O O 0.14951103276075126 0.8463202720809007 -0.27329017017286317 0.0
O O -0.3450146969342225 0.8824927087249211 -0.17968432556308642 0.0
N N -0.10779318901401196 0.8744153492943838 -0.23814395844615227 0.0
N N -0.2047723678358676 0.9952201737686082 -0.3901040421359402 0.0
C C -0.16181165901484842 1.1626006678919178 -0.4381777481929949 0.0
C C -0.05456832113660292 1.1973546878821557 -0.40047358316724463 0.0
C C 0.0882182011876433 1.2237376248591028 -0.4373915763005059 0.0
H H 0.12242820118764329 1.1990076248591028 -0.4746515763005059 0.0
C C -0.19976549365021162 0.763123388057567 -0.0865452330162026 0.0
H H -0.2981754936502117 0.771993388057567 -0.06680523301620263 0.0
C C -0.1554880130730143 0.8001014970184921 -0.14599414549509793 0.0
C C 0.004860358566131476 0.7897839301797833 -0.17410243099485803 0.0
C C -0.11428568869845782 1.2468341164924879 -0.34944569761049804 0.0
H H -0.2147756886984578 1.239404116492488 -0.33070569761049806 0.0
C C -0.21542979963985878 0.8490190433466577 -0.19073327983237023 0.0
C C 0.0233364643265244 0.8312880785561524 -0.22916221385681604 0.0
C C -0.2672151927774825 1.0019552434744303 -0.3278633887794864 0.0
H H -0.32273519277748247 1.0377252434744304 -0.31763338877948644 0.0
C C -0.20929739233379824 0.9596043444835751 -0.26308510562528925 0.0
H H -0.23760739233379827 0.9680743444835751 -0.2159451056252893 0.0
C C -0.12909834363431982 0.9087934852915457 -0.28278125846582813 0.0
C C -0.0885507928814068 0.8989643978431284 -0.3652235292652423 0.0
H H -0.028570792881406806 0.8645343978431286 -0.37708352926524236 0.0
C C -0.15352506400232355 0.9399165680943176 -0.39783042290149334 0.0
H H -0.12177506400232353 0.9332965680943175 -0.44491042290149335 0.0
Cd Cd -0.3070270372035967 -0.5584379726071831 -0.989599108408904 0.0
O O -0.42755479899652593 -0.459452953357874 -1.052295892458139 0.0
O O -0.2221743782802269 -0.5116684601450419 -1.0721558836286191 0.0
O O -0.8900061453154621 -0.7720442614007352 -1.1643258122847042 0.0
O O -0.43789216369675177 -0.7626384398082372 -1.273328523671395 0.0
N N -0.47344698684104863 -0.6230912751875858 -1.0650455181882343 0.0
N N -0.6549345211916511 -0.7612034525826327 -1.1941681831519142 0.0
C C -0.31021059545419993 -0.46050869733919964 -1.0931072302693519 0.0
C C -0.26476703549312897 -0.4172873501780469 -1.14910181219902 0.0
C C -0.11154383957993685 -0.4197070106405885 -1.1838973945733766 0.0
H H -0.03663383957993682 -0.45056701064058857 -1.1712573945733766 0.0
C C -0.10402875291715016 -0.3806545632473193 -1.2261439639342606 0.0
H H -0.005118752917150141 -0.3812145632473193 -1.2478039639342609 0.0
C C -0.22135847086066648 -0.3354616666461129 -1.2577758727626553 0.0
C C -0.3446647183821817 -0.33518564186971533 -1.2248501590787553 0.0
C C -0.4111820044503354 -0.36834664402349715 -1.167363986436753 0.0
H H -0.5087920044503356 -0.3663166440234972 -1.144833986436753 0.0
C C -0.5546766740792797 -0.7877771529944076 -1.2473734436510657 0.0
C C -0.7658586224880937 -0.7911202654188606 -1.1976253637333598 0.0
C C -0.5511096070752022 -0.6561925058177284 -1.0430391675184463 0.0
H H -0.5795196070752022 -0.6534625058177286 -0.9949091675184464 0.0
C C -0.6255458534187784 -0.715599613810624 -1.0819194463117012 0.0
H H -0.6963558534187785 -0.7439696138106239 -1.0633794463117012 0.0
C C -0.5915900782591095 -0.7074757424821136 -1.1487496525161847 0.0
C C -0.46056147347426313 -0.6751365728761475 -1.175221284867067 0.0
H H -0.4322514734742632 -0.6753065728761475 -1.2233812848670669 0.0
C C -0.4390813466926021 -0.6223033507253671 -1.1297796478577524 0.0
H H -0.3655913466926021 -0.5937733507253671 -1.1461396478577526 0.0
O O -0.26435257188708067 -0.6454626086169958 -0.9036427198756996 0.0
O O -0.11497322547267685 -0.6218024135553747 -0.99739707671974 0.0
O O 0.1348939252760245 -0.33067401169145566 -0.7690635103464523 0.0
O O -0.34400234163310495 -0.3704557163980966 -0.6778838874684484 0.0
N N -0.1117059315614366 -0.3611182564494421 -0.7446845399165705 0.0
N N -0.22875163413266106 -0.4945245225563679 -0.904680367444072 0.0
C C -0.1282332467781072 -0.6472606677406146 -0.9306634472063234 0.0
C C -0.06129674781057298 -0.7045991931511724 -0.9012752119910608 0.0
C C 0.08729396341692258 -0.7150201996912584 -0.9376326283898463 0.0
H H 0.12150396341692256 -0.6902901996912585 -0.9748926283898461 0.0
C C -0.18176982788466142 -0.26276527107441483 -0.598078860308115 0.0
H H -0.2801798278846614 -0.2716352710744149 -0.578338860308115 0.0
C C -0.1456489155373155 -0.29246732882718357 -0.6411343362442793 0.0
C C 0.0071423514772812665 -0.28250581350251913 -0.680260915363309 0.0
C C -0.12198978125567497 -0.7465603956524037 -0.8599937562153938 0.0
H H -0.222479781255675 -0.7391303956524037 -0.8412537562153937 0.0
C C -0.2143598589902396 -0.3510103113198027 -0.6730301771257492 0.0
C C 0.036338288301133774 -0.3264947031958939 -0.7373876562187628 0.0
C C -0.25884025815844347 -0.5136061627005497 -0.8307672712277151 0.0
H H -0.3143602581584435 -0.5493761627005499 -0.8205372712277151 0.0
C C -0.2210087322369712 -0.46283850680201705 -0.7807059602284327 0.0
H H -0.2493187322369712 -0.471308506802017 -0.7335659602284328 0.0
C C -0.11870644734341787 -0.4203101876211739 -0.7854194763061071 0.0
C C -0.09962132924557969 -0.4058999081195146 -0.858017986023198 0.0
H H -0.039641329245579705 -0.3714699081195146 -0.8698779860231981 0.0
C C -0.11709594280381441 -0.4464305942921647 -0.9093366968560571 0.0
H H -0.08534594280381438 -0.4398105942921646 -0.9564166968560571 0.0
Cd Cd 0.3152019639431031 -1.0648566565202822 0.49242330598108025 0.0
O O 0.4423772818328171 -0.9566494318823627 0.5585094556962439 0.0
O O 0.2197385098795239 -1.0078567513839676 0.5734443149742029 0.0
O O 0.8839811065740276 -1.2711071425819116 0.6526721953020718 0.0
O O 0.4093126481264883 -1.2686648854734388 0.7561633174575884 0.0
N N 0.4406356641226415 -1.1272458164452248 0.5716872981971562 0.0
N N 0.6354638149643134 -1.257113290681121 0.6997039371360222 0.0
C C 0.3143765947708391 -0.9591729264822183 0.5851280508854539 0.0
C C 0.2680868797371821 -0.9183600572894676 0.6528487807038569 0.0
C C 0.11500593162801333 -0.926215252324531 0.6866993961735959 0.0
H H 0.04009593162801333 -0.9570752523245312 0.6740593961735959 0.0
C C 0.09414273617839083 -0.8787401546626936 0.7231088188385347 0.0
H H -0.004767263821609173 -0.8793001546626936 0.7447688188385346 0.0
C C 0.2163209829483713 -0.830961335634151 0.7390621573926714 0.0
C C 0.3472023124281607 -0.8284412807682279 0.7130045794870533 0.0
C C 0.37367132046086105 -0.8723867005100642 0.6562229033793716 0.0
H H 0.47128132046086113 -0.8703567005100642 0.6336929033793716 0.0
C C 0.5651741995090106 -1.2947235561128672 0.7612803476456724 0.0
C C 0.7759023032102875 -1.2845170572993128 0.6925433315099279 0.0
C C 0.5421260240685436 -1.165681507838108 0.5382736737820365 0.0
H H 0.5705360240685436 -1.1629515078381079 0.4901436737820366 0.0
C C 0.6429885052543237 -1.210820409079548 0.5922756370734616 0.0
H H 0.7137985052543239 -1.239190409079548 0.5737356370734615 0.0
C C 0.5927330220437352 -1.2123762570283865 0.6542650379986537 0.0
C C 0.49462833132991485 -1.1632113061381575 0.6806454383773933 0.0
H H 0.4663183313299148 -1.1633813061381575 0.7288054383773932 0.0
C C 0.43398417401961265 -1.1296891681614945 0.6306285566504347 0.0
H H 0.36049417401961265 -1.1011591681614945 0.646988556650435 0.0
O O 0.2908962745620513 -1.1451136555876946 0.4188726939407108 0.0
O O 0.11137769491408764 -1.1295481492824566 0.491796930039392 0.0
O O -0.13199110579025009 -0.8440556237418956 0.25811323348654125 0.0
O O 0.3306625214099003 -0.8697122034544938 0.17071289840954681 0.0
N N 0.08646447377434095 -0.8676368763392095 0.23292939435777607 0.0
N N 0.22450641583556893 -0.996860182904442 0.40032743071661603 0.0
C C 0.1468203977663236 -1.1524338522182405 0.44005823540155475 0.0
C C 0.0472922193200757 -1.2158972416116887 0.41549363033277664 0.0
C C -0.09430292219401923 -1.2155739872308557 0.43336511198291233 0.0
H H -0.12851292219401922 -1.1908439872308558 0.47062511198291235 0.0
C C 0.21252315029057245 -0.7716229899318159 0.08821992038880444 0.0
H H 0.31093315029057245 -0.7804929899318159 0.06847992038880447 0.0
C C 0.1494326670424337 -0.803879094583065 0.14429035275644264 0.0
C C 0.010359452839348299 -0.7954516862035038 0.17944786782367936 0.0
C C 0.10646437477554993 -1.2431780285376817 0.3485145917677561 0.0
H H 0.20695437477554993 -1.2357480285376818 0.32977459176775614 0.0
C C 0.23424237922648317 -0.8456269007112579 0.1803962322423514 0.0
C C -0.03939362956364066 -0.8250132719629276 0.22339838477432242 0.0
C C 0.2844035221530948 -1.0003584514708377 0.3325944958312644 0.0
H H 0.33992352215309474 -1.0361284514708378 0.3223644958312644 0.0
C C 0.2200350362927787 -0.9569778402325331 0.2698407875232354 0.0
H H 0.2483450362927787 -0.965447840232533 0.22270078752323544 0.0
C C 0.13540509358221997 -0.9117014911871454 0.2986109331010591 0.0
C C 0.09937785583413272 -0.8962314438708857 0.35776021800830804 0.0
H H 0.03939785583413274 -0.8618014438708858 0.369620218008308 0.0
C C 0.15563793639499895 -0.9425269047864042 0.4102736346155224 0.0
H H 0.12388793639499895 -0.9359069047864043 0.45735363461552236 0.0
