_cell_length_a 8.39304
_cell_length_b 22.23511
_cell_length_c 18.74218
_cell_angle_alpha 90.0
_cell_angle_beta 94.0312
_cell_angle_gamma 90.0
_symmetry_space_group_name_H-M         'P 1'
_symmetry_Int_Tables_number            1
loop_
_symmetry_equiv_pos_as_xyz
   'x, y, z'
                         
loop_
_atom_site_label
_atom_site_type_symbol
_atom_site_fract_x 
_atom_site_fract_y
_atom_site_fract_z
_atom_site_charge
Cd Cd 0.3299212793488822 0.5527966691610635 0.9978725541270219 0.0
O O 0.42428379157189433 0.45483077977486913 1.0638948925778982 0.0
O O 0.2091437423343587 0.5143871337399794 1.0730276305019144 0.0
O O 0.9052945984149308 0.7647878520766236 1.1670884937030896 0.0
O O 0.3949963391274058 0.7803537817678706 1.2585429461836408 0.0
N N 0.45462552873571466 0.6118638896220405 1.074668240242239 0.0
N N 0.6492707497209063 0.7488085137837669 1.213316966709321 0.0
C C 0.32415202148741507 0.4639451341896863 1.0922277595008247 0.0
C C 0.28834076993029006 0.4220265043474282 1.1444983583248298 0.0
C C 0.15601162982325792 0.41374927487650875 1.1794415515389562 0.0
H H 0.0811016298232579 0.4446092748765088 1.1668015515389563 0.0
C C 0.07936034360533621 0.3895852701190276 1.2276234388889546 0.0
H H -0.019549656394663793 0.3901452701190276 1.2492834388889547 0.0
C C 0.19300824009139841 0.34635490944692315 1.2432560808983502 0.0
C C 0.35130384210550497 0.3257172205704054 1.227360202561899 0.0
C C 0.37072572302797574 0.37485650063713416 1.1677911887638666 0.0
H H 0.4683357230279758 0.3728265006371342 1.1452611887638666 0.0
C C 0.5216293821095385 0.7910295704392445 1.2497420132074248 0.0
C C 0.7970030167669795 0.7885806336721657 1.2056282795776105 0.0
C C 0.5669712713828455 0.6577234947668873 1.0350552900029857 0.0
H H 0.5953812713828456 0.6549934947668875 0.9869252900029859 0.0
C C 0.6327463429708365 0.7085593068903309 1.084429188404548 0.0
H H 0.7035563429708366 0.7369293068903308 1.065889188404548 0.0
C C 0.5876017842078306 0.7183282732818911 1.1503922717237107 0.0
C C 0.47502134136182655 0.6619448096901985 1.1850422086512133 0.0
H H 0.44671134136182655 0.6621148096901985 1.2332022086512133 0.0
C C 0.4155997830302216 0.6287862517149919 1.1243127264254884 0.0
H H 0.34210978303022155 0.600256251714992 1.1406727264254883 0.0
O O 0.2947197124421233 0.6324706485072857 0.9191198971532266 0.0
O O 0.07679539946362811 0.6197571642970684 0.984775024089603 0.0
O O -0.17195792112994834 0.3480588854263211 0.7548084518132179 0.0
O O 0.3158623302102353 0.38390636768554715 0.6634151399150079 0.0
N N 0.09669369354087562 0.37283784004479276 0.7231257519676066 0.0
N N 0.20356690217181367 0.5042207405733623 0.8948104803322958 0.0
C C 0.11470718063600405 0.6614005177870826 0.926036915262844 0.0
C C 0.05285659169102749 0.7106964166631531 0.9119372846764641 0.0
C C -0.08168214661968157 0.7174864880806384 0.9484386833353157 0.0
H H -0.11589214661968159 0.6927564880806385 0.9856986833353155 0.0
C C 0.2007801588411907 0.27128350412575075 0.5905047093543604 0.0
H H 0.2991901588411907 0.2801535041257508 0.5707647093543604 0.0
C C 0.13670367791881968 0.30489888853078967 0.6529515598576138 0.0
C C 0.006316883049801402 0.2863454895100302 0.6721526971746214 0.0
C C 0.12162062301179986 0.7356734751847162 0.8553638230209017 0.0
H H 0.2221106230117999 0.7282434751847161 0.8366238230209018 0.0
C C 0.20297024422054966 0.3604816870364441 0.6812343492158246 0.0
C C -0.01485926678761452 0.3376848279504529 0.7282672800189474 0.0
C C 0.2708997428482935 0.5025493587379627 0.8381009339927187 0.0
H H 0.32641974284829345 0.5383193587379628 0.8278709339927187 0.0
C C 0.2513751434779425 0.4542302415795959 0.7777438248432497 0.0
H H 0.2796851434779425 0.4627002415795959 0.7306038248432498 0.0
C C 0.16293416484758727 0.4076996578099616 0.8013094599033683 0.0
C C 0.09555638950639898 0.3965874241479327 0.860297991403859 0.0
H H 0.03557638950639898 0.3621574241479327 0.8721579914038591 0.0
C C 0.11794336623330941 0.4538809293513611 0.8974722351449852 0.0
H H 0.0861933662333094 0.447260929351361 0.9445522351449852 0.0
Cd Cd -0.3289999826469447 1.058369188714674 -0.48902635753747054 0.0
O O -0.4299735970425468 0.9538509155190923 -0.5484557976564935 0.0
O O -0.2024962224776474 1.0062955589119238 -0.5823999183792475 0.0
O O -0.9038241789091135 1.2768372874501668 -0.6619546510835673 0.0
O O -0.4111504561632779 1.2610537789043408 -0.7578123070228243 0.0
N N -0.44338862029700726 1.1207849936685181 -0.5700191322344661 0.0
N N -0.6360528866190986 1.2591118197999773 -0.7111992330147286 0.0
C C -0.32066664926271454 0.9655959785091832 -0.60320264304277 0.0
C C -0.29368428775759214 0.9291599157488439 -0.6497393486772912 0.0
C C -0.12552812379523218 0.9217171432285043 -0.6893029085765836 0.0
H H -0.05061812379523217 0.9525771432285045 -0.6766629085765836 0.0
C C -0.07289284485840054 0.8776609647348435 -0.7213953215838996 0.0
H H 0.02601715514159949 0.8782209647348435 -0.7430553215838996 0.0
C C -0.22893192669455853 0.8348970340737032 -0.7472062216655386 0.0
C C -0.34307971468075565 0.8269888976117086 -0.7205080890966551 0.0
C C -0.38166921104196955 0.8756438699714447 -0.6543703227989376 0.0
H H -0.47927921104196963 0.8736138699714447 -0.6318403227989376 0.0
C C -0.5554569301106155 1.2852062275976264 -0.7543731024952323 0.0
C C -0.8051990637462191 1.2962275502572362 -0.7112421584023281 0.0
C C -0.527378206746367 1.1568510580847629 -0.5410479282197835 0.0
H H -0.5557882067463671 1.1541210580847627 -0.49291792821978364 0.0
C C -0.6204264599028082 1.2045559505676866 -0.590092918738177 0.0
H H -0.6912364599028084 1.2329259505676866 -0.5715529187381769 0.0
C C -0.5785881846887063 1.2031513606444273 -0.6465368687526031 0.0
C C -0.45583634735720535 1.1585353706353203 -0.667111994913373 0.0
H H -0.42752634735720535 1.1587053706353203 -0.7152719949133729 0.0
C C -0.4371754118505519 1.12557116647739 -0.6397696126589326 0.0
H H -0.3636854118505519 1.09704116647739 -0.6561296126589329 0.0
O O -0.2984414578548793 1.151279149487566 -0.4119795244292882 0.0
O O -0.10175144364021467 1.1199408134661557 -0.48918303821781456 0.0
O O 0.15794296590725068 0.84084425906303 -0.2711299338842967 0.0
O O -0.3184047396475431 0.8660649097488179 -0.1696280824317373 0.0
N N -0.13153140340029812 0.877205159661542 -0.24349754477428515 0.0
N N -0.21825559034684067 0.9946131159844525 -0.4073300248407972 0.0
C C -0.1508529675507221 1.1568786144898218 -0.44183923522590063 0.0
C C -0.05628712762362948 1.2005067992111809 -0.40300379063687053 0.0
C C 0.11054645228584896 1.209354030797176 -0.42998699274843666 0.0
H H 0.14475645228584896 1.184624030797176 -0.4672469927484366 0.0
C C -0.1949531861754489 0.7737655755644246 -0.08863608737705854 0.0
H H -0.2933631861754489 0.7826355755644246 -0.06889608737705857 0.0
C C -0.11546464783554622 0.7948574674186508 -0.14638912280348768 0.0
C C 0.019338396671004926 0.7805264280864332 -0.16551400630232732 0.0
C C -0.13002973083667949 1.2502300578732275 -0.3595888439714158 0.0
H H -0.23051973083667945 1.2428000578732277 -0.3408488439714158 0.0
C C -0.2342206774398099 0.8619613898349471 -0.19366084375690581 0.0
C C 0.01173695297869786 0.8359372143599849 -0.2384600590572797 0.0
C C -0.23884549353952442 1.0046056666557144 -0.3266467710460859 0.0
H H -0.2943654935395244 1.0403756666557145 -0.316416771046086 0.0
C C -0.2066866812139688 0.9586370183663415 -0.2704580789776923 0.0
H H -0.2349966812139688 0.9671070183663415 -0.22331807897769235 0.0
C C -0.14008703816237195 0.9140467862354761 -0.28997941234529956 0.0
C C -0.09626013209479745 0.9062090224264111 -0.37071532498774545 0.0
H H -0.03628013209479745 0.8717790224264113 -0.3825753249877455 0.0
C C -0.1403937202868141 0.9546035617742982 -0.41593800304561235 0.0
H H -0.1086437202868141 0.9479835617742982 -0.4630180030456123 0.0
Cd Cd -0.3114330960735869 -0.5500299978413723 -0.9845471203017335 0.0
O O -0.4229170890879236 -0.4565753864099699 -1.0670396534631108 0.0
O O -0.22029460217190983 -0.512188913723753 -1.0737792433640256 0.0
O O -0.908205998264116 -0.7730748433245211 -1.1531684176743147 0.0
O O -0.4107682110152919 -0.7729174530830186 -1.2698358975476869 0.0
N N -0.4503495594746626 -0.6201882963711007 -1.0698545997637066 0.0
N N -0.6581400646790696 -0.7565008569043127 -1.195683892919435 0.0
C C -0.29932476622584975 -0.4650264757186035 -1.0800008925605626 0.0
C C -0.27799098062546124 -0.42147359108657806 -1.1507822932533593 0.0
C C -0.15517737877382703 -0.419137910735542 -1.1910563656882895 0.0
H H -0.08026737877382699 -0.4499979107355421 -1.1784163656882893 0.0
C C -0.07522345712029656 -0.37953275490009 -1.2276018090436707 0.0
H H 0.023686542879703443 -0.38009275490009 -1.2492618090436707 0.0
C C -0.21476392858088922 -0.3382138521063714 -1.2488622223777963 0.0
C C -0.36111631695440544 -0.34482324997500663 -1.2127599832107665 0.0
C C -0.39669137120243764 -0.37284054993886606 -1.1666830465532596 0.0
H H -0.4943013712024378 -0.37081054993886603 -1.1441530465532597 0.0
C C -0.5501004906056428 -0.7866633076602388 -1.256314884440903 0.0
C C -0.7816368811242264 -0.7918850801664858 -1.186814572060942 0.0
C C -0.5621721340298199 -0.6650762804000973 -1.0321637612717154 0.0
H H -0.59058213402982 -0.6623462804000975 -0.9840337612717155 0.0
C C -0.6234581438433012 -0.7114590252989095 -1.0931197804637103 0.0
H H -0.6942681438433013 -0.7398290252989095 -1.0745797804637103 0.0
C C -0.5737786200787602 -0.708279301253667 -1.1533371418221605 0.0
C C -0.49562107906822994 -0.6654484305053802 -1.1861237277870051 0.0
H H -0.46731107906823 -0.6656184305053802 -1.2342837277870053 0.0
C C -0.44483886432144853 -0.6196864995477147 -1.1335268378407288 0.0
H H -0.37134886432144854 -0.5911564995477148 -1.1498868378407288 0.0
O O -0.29054561889602426 -0.6327212204944198 -0.9075143494142927 0.0
O O -0.10308077851336944 -0.6172348038873033 -0.9857404049211935 0.0
O O 0.14468816428845502 -0.3502244877845597 -0.7538471790282346 0.0
O O -0.3424927787321493 -0.3681152931826731 -0.6866229370910412 0.0
N N -0.11080418333980216 -0.3782520098375213 -0.7336099129589649 0.0
N N -0.22247039694880644 -0.5007420495141962 -0.8866629816253269 0.0
C C -0.11749477946984936 -0.6542990436387573 -0.9326377165780427 0.0
C C -0.04928902213891578 -0.6979395880468175 -0.9216460373046859 0.0
C C 0.09826955673954979 -0.7195001161038318 -0.925244224681793 0.0
H H 0.1324795567395498 -0.6947701161038319 -0.962504224681793 0.0
C C -0.19667192590437782 -0.2639805680817779 -0.5956124932918577 0.0
H H -0.2950819259043778 -0.2728505680817779 -0.5758724932918576 0.0
C C -0.11875236939976384 -0.308995537875764 -0.6319233563095196 0.0
C C 0.011907848057226333 -0.29693982084616266 -0.6718582556859535 0.0
C C -0.10815963882111448 -0.7376110193645531 -0.8546290894347391 0.0
H H -0.2086496388211145 -0.730181019364553 -0.8358890894347392 0.0
C C -0.22742499635357874 -0.3567622219623619 -0.6829392951004138 0.0
C C 0.048138391296309126 -0.32909771276009936 -0.7260709492755283 0.0
C C -0.27855418177866514 -0.5039993777844909 -0.8226824191489136 0.0
H H -0.33407418177866516 -0.539769377784491 -0.8124524191489136 0.0
C C -0.2258122300792161 -0.46533806863790383 -0.7827817397472141 0.0
H H -0.2541222300792161 -0.4738080686379038 -0.7356417397472141 0.0
C C -0.14875816139845177 -0.4196867337210298 -0.7902097984135319 0.0
C C -0.08780174187841605 -0.40276440116568046 -0.85297573234671 0.0
H H -0.027821741878416052 -0.36833440116568045 -0.86483573234671 0.0
C C -0.16868247919774726 -0.44083387622676534 -0.918416611132634 0.0
H H -0.13693247919774726 -0.4342138762267653 -0.965496611132634 0.0
Cd Cd 0.33044675535699686 -1.0584482570850429 0.49107257483064476 0.0
O O 0.44996685619829346 -0.9593215544907426 0.5646816507441224 0.0
O O 0.21265753742534863 -1.0118376208024351 0.5785159213595558 0.0
O O 0.9108275567247259 -1.270937157056667 0.6618034195376279 0.0
O O 0.42571253968930667 -1.2774020244457698 0.7583345823282778 0.0
N N 0.4859547653783705 -1.1308557082373683 0.5771240589022361 0.0
N N 0.650062507839223 -1.2581453331376922 0.7037307262754194 0.0
C C 0.2982595494969626 -0.9606394001541493 0.5804298724450763 0.0
C C 0.27508442918572307 -0.9276871295340745 0.641657049053229 0.0
C C 0.1200241115516455 -0.9177360395296822 0.6831558334860868 0.0
H H 0.0451141115516455 -0.9485960395296823 0.6705158334860868 0.0
C C 0.10308992806492183 -0.8893674948274072 0.7334263391676349 0.0
H H 0.004179928064921801 -0.8899274948274072 0.7550863391676349 0.0
C C 0.23653856527422515 -0.8460359260164161 0.7519442032923374 0.0
C C 0.3475169407320156 -0.8311743472747978 0.7250712778279045 0.0
C C 0.3943446153240134 -0.8815187732161478 0.6666041760441183 0.0
H H 0.49195461532401347 -0.8794887732161478 0.6440741760441182 0.0
C C 0.5252921909244125 -1.287755180736603 0.7500289549581677 0.0
C C 0.7892378901330196 -1.2913152499192728 0.690035177589878 0.0
C C 0.5423589156054143 -1.154885622210083 0.5315916328142101 0.0
H H 0.5707689156054143 -1.1521556222100828 0.4834616328142102 0.0
C C 0.6240196044822647 -1.206616094421373 0.5942699270449214 0.0
H H 0.6948296044822648 -1.234986094421373 0.5757299270449213 0.0
C C 0.5787495825941206 -1.2138466231799463 0.6639633399087477 0.0
C C 0.4647714878662502 -1.1618928556063188 0.6759767532586611 0.0
H H 0.4364614878662502 -1.1620628556063188 0.7241367532586611 0.0
C C 0.4188293674924779 -1.1322898381076056 0.631393893279913 0.0
H H 0.3453393674924779 -1.1037598381076057 0.6477538932799133 0.0
O O 0.2685605245755358 -1.1481719127403638 0.41949806029837106 0.0
O O 0.0791437685092477 -1.1237538771449798 0.49142618660792675 0.0
O O -0.14749564578166363 -0.834038863314606 0.2514290240795218 0.0
O O 0.3280780718212493 -0.8778493511113041 0.18230509890481264 0.0
N N 0.13831482398698813 -0.8724763745850221 0.2354353924117462 0.0
N N 0.2106362913690942 -0.9940981804488439 0.38718653061011704 0.0
C C 0.1417581077341855 -1.1479877608723859 0.44006997122495545 0.0
C C 0.030216554953193215 -1.2068186199670587 0.40333827570563385 0.0
C C -0.07658586078847539 -1.2162449591206879 0.43657785872518795 0.0
H H -0.11079586078847538 -1.191514959120688 0.47383785872518797 0.0
C C 0.18086338640983818 -0.7642267882778081 0.08332932225707092 0.0
H H 0.2792733864098382 -0.7730967882778081 0.06358932225707095 0.0
C C 0.13683014067231306 -0.7974113467928761 0.13525941210227213 0.0
C C 0.008095126820215747 -0.7909634606706212 0.1732767242092939 0.0
C C 0.10276285723446946 -1.2495934425046173 0.3637272595914034 0.0
H H 0.20325285723446945 -1.2421634425046175 0.3449872595914034 0.0
C C 0.20291258720151298 -0.8527105734182916 0.18909481804067957 0.0
C C -0.014472193471150047 -0.831394506478152 0.2246953421849213 0.0
C C 0.2549021901218136 -1.0041490680539122 0.32800719117834637 0.0
H H 0.31042219012181355 -1.0399190680539123 0.31777719117834646 0.0
C C 0.23932358564949424 -0.9682081415128593 0.2782653055996619 0.0
H H 0.26763358564949424 -0.9766781415128593 0.2311253055996619 0.0
C C 0.11719267261307979 -0.9014791489546241 0.2815502367708298 0.0
C C 0.09522853563103827 -0.8978727482072213 0.3640251360609127 0.0
H H 0.03524853563103827 -0.8634427482072213 0.37588513606091273 0.0
C C 0.1587077000134924 -0.9516558197538393 0.4147023489172029 0.0
H H 0.12695770001349238 -0.9450358197538393 0.4617823489172029 0.0
