_cell_length_a 8.39304
_cell_length_b 22.23511
_cell_length_c 18.74218
_cell_angle_alpha 90.0
_cell_angle_beta 94.0312
_cell_angle_gamma 90.0
_symmetry_space_group_name_H-M         'P 1'
_symmetry_Int_Tables_number            1
loop_
_symmetry_equiv_pos_as_xyz
   'x, y, z'
                         
loop_
_atom_site_label
_atom_site_type_symbol
_atom_site_fract_x 
_atom_site_fract_y
_atom_site_fract_z
_atom_site_charge
Cd Cd 0.32401081436576185 0.5579967477793738 0.988855300387085 0.0
O O 0.4167532957098966 0.4548516845080939 1.055265268002498 0.0
O O 0.20878269447095643 0.502943273700705 1.0863889369783146 0.0
O O 0.9049076057261483 0.7695838367092491 1.1641629826379933 0.0
O O 0.4301269389508124 0.7670591530768097 1.26559562701599 0.0
N N 0.44086163207276974 0.6220967758698619 1.07188676058219 0.0
N N 0.6255632323969339 0.7527433166680146 1.2067945551473729 0.0
C C 0.32082723248978734 0.46324377941612177 1.0903106855594784 0.0
C C 0.26727028123457974 0.4246804036478858 1.142133142493724 0.0
C C 0.1286449228827608 0.427507983806154 1.1759160720894408 0.0
H H 0.05373492288276074 0.45836798380615407 1.1632760720894406 0.0
C C 0.10571134914621154 0.382236483940231 1.2313876105670818 0.0
H H 0.006801349146211521 0.382796483940231 1.2530476105670818 0.0
C C 0.21497140370353976 0.33363513477650003 1.2458966499284967 0.0
C C 0.3493788804911731 0.3422917679853328 1.2144411149403214 0.0
C C 0.3831060789630246 0.373294349168659 1.1735157413752497 0.0
H H 0.48071607896302465 0.371264349168659 1.1509857413752496 0.0
C C 0.5447594953779783 0.7912782006079785 1.2445450774017708 0.0
C C 0.7794343906781297 0.785434834534623 1.1904661516513453 0.0
C C 0.5532376348726272 0.6619901715373568 1.0352673648806174 0.0
H H 0.5816476348726273 0.6592601715373569 0.9871373648806177 0.0
C C 0.6155344220052669 0.7018883946958284 1.0849916879959762 0.0
H H 0.6863444220052669 0.7302583946958282 1.0664516879959762 0.0
C C 0.5668395339467825 0.7081533356412424 1.1527340639930228 0.0
C C 0.4751199011997725 0.6624023893591983 1.179306377824738 0.0
H H 0.44680990119977254 0.6625723893591983 1.2274663778247379 0.0
C C 0.42792944505662106 0.6263752720416716 1.136097803953513 0.0
H H 0.35443944505662106 0.5978452720416717 1.1524578039535132 0.0
O O 0.27077604304001335 0.6463769257529958 0.9039186691195293 0.0
O O 0.10425829886752659 0.6201567613118701 0.9891634687774624 0.0
O O -0.14351623114166673 0.3385121591164397 0.7626287398654908 0.0
O O 0.3399428467979108 0.3809201673485442 0.6756906622129336 0.0
N N 0.11382329371622225 0.3728150601534823 0.7317899616127672 0.0
N N 0.23175480471702978 0.4990207464216667 0.8899756240330439 0.0
C C 0.12922345319600242 0.6554261323349603 0.9419493388630571 0.0
C C 0.04128735532664155 0.7011750687331405 0.911599979162394 0.0
C C -0.08705839872825272 0.7197263977884415 0.9436232232048906 0.0
H H -0.12126839872825275 0.6949963977884416 0.9808832232048904 0.0
C C 0.20352995900807508 0.26907119500150806 0.5812580828741335 0.0
H H 0.3019399590080751 0.2779411950015081 0.5615180828741335 0.0
C C 0.14686041352737522 0.30636230228645034 0.6387538881983307 0.0
C C -0.006927302966023546 0.2821638020538933 0.6754826852748548 0.0
C C 0.11183513842384826 0.7402263809136758 0.8481333532513056 0.0
H H 0.21232513842384826 0.7327963809136757 0.8293933532513055 0.0
C C 0.21014837344185955 0.35261940953815235 0.6825936980635186 0.0
C C -0.013760701290156855 0.3330064902661183 0.7338428084265626 0.0
C C 0.24827094085644005 0.5087695241778657 0.831253682949626 0.0
H H 0.30379094085644004 0.5445395241778658 0.821023682949626 0.0
C C 0.23605597789403304 0.46754675136400703 0.7679555773675328 0.0
H H 0.264365977894033 0.476016751364007 0.7208155773675329 0.0
C C 0.1387370427670567 0.41694216239352266 0.7859675000814982 0.0
C C 0.09322625326040228 0.406182190078181 0.8502223915416548 0.0
H H 0.03324625326040229 0.371752190078181 0.862082391541655 0.0
C C 0.14616126814994973 0.44308969286542693 0.914973921467056 0.0
H H 0.1144112681499497 0.4364696928654269 0.962053921467056 0.0
Cd Cd -0.312240978122302 1.058780665980206 -0.4912511347539664 0.0
O O -0.4320361082911053 0.9659076235553901 -0.5566689673626737 0.0
O O -0.218105315828256 1.006509353451718 -0.5861563646826343 0.0
O O -0.876255940483272 1.2677742783586718 -0.6650125249846148 0.0
O O -0.4126125229790784 1.2771753070511003 -0.7707234438466971 0.0
N N -0.44760908420441026 1.1161924351146386 -0.5646347140031241 0.0
N N -0.6308365473227463 1.250634010917509 -0.6990522279884698 0.0
C C -0.3220375607713011 0.9678237453105341 -0.5871153211421762 0.0
C C -0.29188124583933145 0.9162198773989947 -0.6407961139617415 0.0
C C -0.12412035201933863 0.921415636962182 -0.6780548542374965 0.0
H H -0.049210352019338634 0.9522756369621822 -0.6654148542374965 0.0
C C -0.11196891175816925 0.8845166735268755 -0.7342129457890583 0.0
H H -0.013058911758169237 0.8850766735268755 -0.7558729457890583 0.0
C C -0.2000043507277215 0.8359174888446896 -0.7423480405612228 0.0
C C -0.3583038811124025 0.8308980090169841 -0.7150924402952425 0.0
C C -0.40471284572017935 0.8730577719886413 -0.6609185179112592 0.0
H H -0.5023228457201795 0.8710277719886413 -0.6383885179112592 0.0
C C -0.5524391853329743 1.282798035957867 -0.7489567002571167 0.0
C C -0.7959967392537651 1.2886582844018986 -0.7033806728372094 0.0
C C -0.5403055805835933 1.163937335303675 -0.5415683691909399 0.0
H H -0.5687155805835934 1.161207335303675 -0.49343836919094003 0.0
C C -0.6236039814275138 1.2144093192183165 -0.5900091308933002 0.0
H H -0.694413981427514 1.2427793192183165 -0.5714691308933001 0.0
C C -0.595490990349316 1.2052423827966174 -0.6511682992798469 0.0
C C -0.4694310455880316 1.1738326285504597 -0.6836646943284527 0.0
H H -0.4411210455880316 1.17400262855046 -0.7318246943284525 0.0
C C -0.42378772391513003 1.1200506934930514 -0.6281550892069763 0.0
H H -0.35029772391513 1.0915206934930515 -0.6445150892069764 0.0
O O -0.255591606378787 1.1400942644241734 -0.41361839763915503 0.0
O O -0.10278098487874089 1.127315061891671 -0.4935984136736676 0.0
O O 0.1304677191454373 0.841868837961252 -0.25700819849089496 0.0
O O -0.3344613250328278 0.879039630082401 -0.1775548254158294 0.0
N N -0.1183182019004758 0.8667283226707589 -0.23003491842465418 0.0
N N -0.21296750302835557 0.9994234848409547 -0.4040968538155491 0.0
C C -0.14166733445478763 1.152971625413788 -0.43653497797689134 0.0
C C -0.04527305319753874 1.2081277965593191 -0.4107093110934623 0.0
C C 0.10700787616881247 1.2158713121747455 -0.43324930612156415 0.0
H H 0.14121787616881243 1.1911413121747456 -0.47050930612156416 0.0
C C -0.19213841462225262 0.7670970841824903 -0.08627174431109917 0.0
H H -0.2905484146222526 0.7759670841824904 -0.06653174431109919 0.0
C C -0.13277590635323575 0.7968002044773872 -0.14236635760292474 0.0
C C 0.011024714021518257 0.7818754185767743 -0.1653164973707966 0.0
C C -0.09065102506775938 1.2404814190617162 -0.35322461478379436 0.0
H H -0.19114102506775937 1.2330514190617163 -0.3344846147837944 0.0
C C -0.20385135415468852 0.8476444234400542 -0.17732510953818204 0.0
C C 0.029241224563819994 0.8321952575476219 -0.23304274005333875 0.0
C C -0.2503216780815063 0.9985527865514536 -0.32850070543242677 0.0
H H -0.30584167808150625 1.0343227865514537 -0.31827070543242686 0.0
C C -0.22074867975081663 0.9613051231658482 -0.278669022790357 0.0
H H -0.24905867975081666 0.9697751231658481 -0.23152902279035703 0.0
C C -0.14223065245332553 0.9143000300290518 -0.2825440469263831 0.0
C C -0.0926388579385276 0.9090327068802284 -0.3564364951896028 0.0
H H -0.03265885793852759 0.8746027068802286 -0.36829649518960283 0.0
C C -0.1477446089121766 0.9475700311880021 -0.40979757351697527 0.0
H H -0.11599460891217661 0.9409500311880021 -0.45687757351697517 0.0
Cd Cd -0.2982482948394067 -0.5585167499307848 -0.9915412333463475 0.0
O O -0.41339471852655635 -0.4610536683707871 -1.0607615133673332 0.0
O O -0.18986059631046465 -0.5074247960891983 -1.0805287584242842 0.0
O O -0.9035073107652399 -0.7701900625877264 -1.1569654372079239 0.0
O O -0.43304673585513015 -0.7742892876484623 -1.2635933445887717 0.0
N N -0.46316515163080846 -0.6266221674836107 -1.0574256331479825 0.0
N N -0.6252602189765468 -0.7550044521237764 -1.1978494960635666 0.0
C C -0.29747017720670055 -0.4619523024480358 -1.089471719762465 0.0
C C -0.2774884642739823 -0.41755958006970745 -1.1529576726284978 0.0
C C -0.11929657437785768 -0.42564224662226796 -1.1754210428835428 0.0
H H -0.04438657437785761 -0.456502246622268 -1.1627810428835426 0.0
C C -0.09579627305848272 -0.38117472436854893 -1.2388269401679088 0.0
H H 0.0031137269415173036 -0.38173472436854894 -1.2604869401679089 0.0
C C -0.19366343729883265 -0.33500911884248824 -1.2481501095924836 0.0
C C -0.3396710097702576 -0.33782442909092175 -1.2108828849172246 0.0
C C -0.3710495186962115 -0.379599630816247 -1.1633802569545026 0.0
H H -0.46865951869621164 -0.37756963081624695 -1.1408502569545027 0.0
C C -0.5535741024772972 -0.7866368385546237 -1.2501783231343355 0.0
C C -0.7764533470655517 -0.7902637802510666 -1.1914961320249944 0.0
C C -0.5424178157473426 -0.6604194834886334 -1.049333103380628 0.0
H H -0.5708278157473426 -0.6576894834886335 -1.0012031033806281 0.0
C C -0.6381954271925305 -0.7069179032018009 -1.083322688514388 0.0
H H -0.7090054271925307 -0.7352879032018008 -1.064782688514388 0.0
C C -0.5951939687760234 -0.7133915064778074 -1.1492947810730971 0.0
C C -0.4659605352709244 -0.6681475585166906 -1.1879436235879637 0.0
H H -0.43765053527092446 -0.6683175585166906 -1.2361036235879637 0.0
C C -0.41633757761897233 -0.620933824977335 -1.131578349576483 0.0
H H -0.34284757761897233 -0.5924038249773349 -1.147938349576483 0.0
O O -0.27776072088703146 -0.6439232647648973 -0.9111913684789777 0.0
O O -0.08112363041791061 -0.62904039925759 -0.9828680350780966 0.0
O O 0.14722737879827996 -0.3357587648434838 -0.7681237816105049 0.0
O O -0.3537542589315147 -0.37069874851193957 -0.6772931415900664 0.0
N N -0.10829604379612068 -0.3651895238384353 -0.7395092781329522 0.0
N N -0.21339929551870987 -0.4932111048077067 -0.8913963189621883 0.0
C C -0.14390117449565332 -0.6529163723108172 -0.9361383822881221 0.0
C C -0.03830041212589608 -0.7108752673623556 -0.9037692464531738 0.0
C C 0.0869921175971073 -0.7151842096881412 -0.9347789161281519 0.0
H H 0.1212021175971073 -0.6904542096881413 -0.9720389161281519 0.0
C C -0.20112179172356617 -0.27214037436652116 -0.5857642182026069 0.0
H H -0.2995317917235662 -0.28101037436652115 -0.566024218202607 0.0
C C -0.1473479329121282 -0.2958982886581037 -0.6484056111460857 0.0
C C 0.005904830773707755 -0.29226996663782184 -0.6719322045254015 0.0
C C -0.09699521674285144 -0.7399708504069414 -0.8516864390282055 0.0
H H -0.19748521674285147 -0.7325408504069414 -0.8329464390282055 0.0
C C -0.21663814226515604 -0.3492913196841081 -0.6889915660536194 0.0
C C 0.04499779202008317 -0.33058359612066957 -0.7244983087616708 0.0
C C -0.2704888208104762 -0.5077628374245553 -0.8263528609785127 0.0
H H -0.32600882081047616 -0.5435328374245554 -0.8161228609785126 0.0
C C -0.2365519456429957 -0.4628822868174757 -0.7709369427553839 0.0
H H -0.2648619456429957 -0.47135228681747565 -0.723796942755384 0.0
C C -0.13411524330699506 -0.40614975036481415 -0.7910654422037161 0.0
C C -0.0871491532206404 -0.4005162944858904 -0.8623630697665097 0.0
H H -0.027169153220640414 -0.36608629448589036 -0.8742230697665099 0.0
C C -0.15587079807797083 -0.44519942590227823 -0.9086043264887926 0.0
H H -0.1241207980779708 -0.43857942590227816 -0.9556843264887926 0.0
Cd Cd 0.31560047798471624 -1.0506017876812688 0.4887423814038009 0.0
O O 0.43913088447871423 -0.960439452446426 0.551691555508559 0.0
O O 0.21076215367158946 -1.0007662241386064 0.5790867541376419 0.0
O O 0.902859673140173 -1.2750494136859591 0.6647967475584209 0.0
O O 0.429346486502228 -1.276599027578864 0.7635089332773733 0.0
N N 0.4567497779774693 -1.1156069156095891 0.5681995033217913 0.0
N N 0.6470591843359411 -1.261532405722872 0.7026485393873315 0.0
C C 0.3054609399605196 -0.9611688803358205 0.5942393239813434 0.0
C C 0.28129730918333173 -0.9151670903454703 0.6484678611329927 0.0
C C 0.13928504007366385 -0.9198175508673155 0.6784425567282206 0.0
H H 0.06437504007366386 -0.9506775508673158 0.6658025567282206 0.0
C C 0.0987925889668074 -0.8796590763124121 0.7288173611442517 0.0
H H -0.00011741103319262743 -0.8802190763124121 0.7504773611442516 0.0
C C 0.22656418609162007 -0.8396449932278497 0.7511004143709731 0.0
C C 0.37168746335295544 -0.8401973901120829 0.7182454632644197 0.0
C C 0.4006116213833486 -0.8775372744971466 0.6582057238693095 0.0
H H 0.49822162138334875 -0.8755072744971466 0.6356757238693095 0.0
C C 0.547001302877982 -1.2830390466811716 0.7513897672056308 0.0
C C 0.7975263910663815 -1.2853455322147218 0.7010118386516273 0.0
C C 0.5394276465542728 -1.1629014219613376 0.5469908612353336 0.0
H H 0.5678376465542729 -1.1601714219613375 0.4988608612353337 0.0
C C 0.6293244974175183 -1.2074087054613447 0.5901485633006464 0.0
H H 0.7001344974175183 -1.2357787054613447 0.5716085633006462 0.0
C C 0.5837177197476099 -1.2075096375700531 0.6595422191468815 0.0
C C 0.4838353938031187 -1.1736376871890988 0.679642297082083 0.0
H H 0.45552539380311863 -1.1738076871890988 0.7278022970820829 0.0
C C 0.4295699586301785 -1.1299039951145078 0.6386781627854144 0.0
H H 0.3560799586301785 -1.1013739951145078 0.6550381627854146 0.0
O O 0.2769610687141228 -1.140675608768019 0.4114971486959382 0.0
O O 0.07247919869237364 -1.121580355253109 0.48261348947445815 0.0
O O -0.14288462283777204 -0.8348711996793049 0.2683378214258599 0.0
O O 0.35197413990042437 -0.8765764459341061 0.18151039359022025 0.0
N N 0.09889162220425225 -0.8663215379576727 0.2356638717825255 0.0
N N 0.22210774196425317 -0.989376645048039 0.39127126800787754 0.0
C C 0.15999254729220577 -1.152708500422325 0.4304310705135547 0.0
C C 0.053347150981412024 -1.2128081648400975 0.4089271012975655 0.0
C C -0.11536866769026477 -1.2225348602193225 0.4391448522810841 0.0
H H -0.14957866769026476 -1.1978048602193225 0.47640485228108403 0.0
C C 0.20453861763908385 -0.7638839017188779 0.08635923753937409 0.0
H H 0.30294861763908393 -0.7727539017188779 0.06661923753937413 0.0
C C 0.12410199413302364 -0.8035189120299258 0.15178157678257964 0.0
C C -0.014210446320464153 -0.7914126014023289 0.16486902041381893 0.0
C C 0.11174735191703916 -1.2473647461124446 0.3499067072258511 0.0
H H 0.21223735191703916 -1.2399347461124448 0.3311667072258511 0.0
C C 0.19839590312764654 -0.8544709138091684 0.18830327494001922 0.0
C C -0.04698724255747084 -0.8336144624523512 0.22388639285594442 0.0
C C 0.2481269620715179 -1.005444227597257 0.33439849484876183 0.0
H H 0.3036469620715179 -1.0412142275972571 0.3241684948487619 0.0
C C 0.22422639132316938 -0.9630653371094573 0.2801798867185121 0.0
H H 0.2525363913231694 -0.9715353371094573 0.23303988671851208 0.0
C C 0.12493063638125242 -0.9147133459792343 0.2846156993609175 0.0
C C 0.10974366336029767 -0.9060217883603325 0.35226135926693264 0.0
H H 0.04976366336029769 -0.8715917883603326 0.3641213592669327 0.0
C C 0.14388572094162316 -0.9464375227951122 0.41025072558532405 0.0
H H 0.11213572094162316 -0.9398175227951121 0.457330725585324 0.0
