_cell_length_a 8.39304
_cell_length_b 22.23511
_cell_length_c 18.74218
_cell_angle_alpha 90.0
_cell_angle_beta 94.0312
_cell_angle_gamma 90.0
_symmetry_space_group_name_H-M         'P 1'
_symmetry_Int_Tables_number            1
loop_
_symmetry_equiv_pos_as_xyz
   'x, y, z'
                         
loop_
_atom_site_label
_atom_site_type_symbol
_atom_site_fract_x 
_atom_site_fract_y
_atom_site_fract_z
_atom_site_charge
Cd Cd 0.3066822912530132 0.5589820306500565 0.9944626627467218 0.0
O O 0.4094463696682055 0.467202157174394 1.0496401312203547 0.0
O O 0.2063849567577943 0.5025727241246711 1.077639306782541 0.0
O O 0.876406326982441 0.7766636172840135 1.1575121362733494 0.0
O O 0.4250617327686631 0.7686839715174688 1.2717023959932148 0.0
N N 0.44438240625596054 0.6223889847638758 1.066701762160072 0.0
N N 0.6271507573712193 0.7587757335593879 1.2036241128748921 0.0
C C 0.3183135187943084 0.4660320327523151 1.0851609818698105 0.0
C C 0.26113511735837713 0.4214768444972051 1.1414357513223474 0.0
C C 0.13696089091431374 0.41411075219267973 1.1822649930812015 0.0
H H 0.06205089091431369 0.4449707521926798 1.1696249930812013 0.0
C C 0.1000714867702287 0.3809987831019565 1.2273481895213056 0.0
H H 0.0011614867702286944 0.3815587831019565 1.2490081895213057 0.0
C C 0.2294956981545217 0.338950794220701 1.2528590039972076 0.0
C C 0.3336462756204926 0.3326534805430958 1.217231751821383 0.0
C C 0.3805575876150884 0.377062412583321 1.156998954477828 0.0
H H 0.4781675876150885 0.37503241258332104 1.134468954477828 0.0
C C 0.5318347900173465 0.7823242438891638 1.2489732383621892 0.0
C C 0.8007568236809577 0.7865551357509889 1.1944760923193531 0.0
C C 0.5531044964256927 0.6562268472669507 1.046320302259629 0.0
H H 0.5815144964256928 0.6534968472669508 0.9981903022596291 0.0
C C 0.6162935317723297 0.7155845216361474 1.0779486269683423 0.0
H H 0.6871035317723299 0.7439545216361472 1.0594086269683423 0.0
C C 0.5786356192923419 0.7112594070963221 1.1547001087005844 0.0
C C 0.46965358269403096 0.6700335960253336 1.1842612054456645 0.0
H H 0.44134358269403096 0.6702035960253335 1.2324212054456647 0.0
C C 0.3977186871381113 0.6221073374654122 1.131962605922603 0.0
H H 0.3242286871381113 0.5935773374654123 1.148322605922603 0.0
O O 0.2760327044040159 0.6420829512418393 0.9117639384622839 0.0
O O 0.09435870421931032 0.624394549754282 0.9906194185009375 0.0
O O -0.12149946338770361 0.33518736848460134 0.7706126043069337 0.0
O O 0.3583701900169583 0.37817432682028396 0.6796714314789875 0.0
N N 0.11121605165121368 0.3642510896394842 0.7421536478204082 0.0
N N 0.20383365169800471 0.5004981936674121 0.8917614860727747 0.0
C C 0.16313416383030263 0.6476423779979543 0.9344847475742605 0.0
C C 0.04243522269686528 0.7061238085735938 0.9067967814048423 0.0
C C -0.0977539872844715 0.7167561808772217 0.9333740046399949 0.0
H H -0.13196398728447153 0.6920261808772218 0.9706340046399947 0.0
C C 0.17256063906408137 0.27273722661758326 0.5840092098656992 0.0
H H 0.27097063906408136 0.28160722661758325 0.5642692098656992 0.0
C C 0.14514165275867896 0.2994132175094107 0.6353049724939676 0.0
C C -0.012775161746278662 0.29500381053799757 0.6619738989674027 0.0
C C 0.11351810364322723 0.7427673697807542 0.8537051253471478 0.0
H H 0.21400810364322725 0.7353373697807541 0.8349651253471478 0.0
C C 0.21459439361405425 0.3470827231420471 0.6784107638287931 0.0
C C -0.04156094420084877 0.33642139511447117 0.7221326959246371 0.0
C C 0.24926631623957482 0.5035226636327444 0.8236652995026542 0.0
H H 0.3047863162395748 0.5392926636327445 0.8134352995026541 0.0
C C 0.20790591758968613 0.46692799641295785 0.7654861899086374 0.0
H H 0.23621591758968613 0.4753979964129578 0.7183461899086374 0.0
C C 0.12897430178408867 0.410797606136511 0.7934270066888212 0.0
C C 0.09230031550119289 0.4029634533553538 0.8633893598863455 0.0
H H 0.0323203155011929 0.36853345335535376 0.8752493598863456 0.0
C C 0.14804242429266196 0.4488532809948387 0.9103526964284847 0.0
H H 0.11629242429266194 0.44223328099483866 0.9574326964284847 0.0
Cd Cd -0.3089095443612996 1.056578751500436 -0.4962273594001277 0.0
O O -0.41644370405955405 0.954094751422677 -0.5463086519621294 0.0
O O -0.20461437842143407 1.0122832071860528 -0.5820177878849037 0.0
O O -0.9071286801942834 1.263434550779571 -0.6580311877302742 0.0
O O -0.4103363480805608 1.2770803537391215 -0.771838937861066 0.0
N N -0.4691462000935359 1.1289577882064734 -0.5651736178924638 0.0
N N -0.6617347057391642 1.2619111312200417 -0.7081442855042965 0.0
C C -0.32489537701382765 0.9643717583471914 -0.5888930208438239 0.0
C C -0.28301661952828877 0.9126653056742701 -0.6389059972779952 0.0
C C -0.12132187835210473 0.9167739398241931 -0.674764308314198 0.0
H H -0.04641187835210473 0.9476339398241933 -0.662124308314198 0.0
C C -0.10756784029738685 0.8768427527515955 -0.7310329464284377 0.0
H H -0.008657840297386829 0.8774027527515955 -0.7526929464284376 0.0
C C -0.21366772154683292 0.8362336484600403 -0.7566611916815055 0.0
C C -0.3451409307138912 0.8287514104865652 -0.7092767809996973 0.0
C C -0.3748827289680808 0.8803475323717334 -0.6667136714414533 0.0
H H -0.47249272896808087 0.8783175323717333 -0.6441836714414533 0.0
C C -0.5418054583398743 1.2889536565800512 -0.7578851364233866 0.0
C C -0.7790597166035275 1.2832946814643853 -0.6922351755834139 0.0
C C -0.5384912302257473 1.1614263694633138 -0.5413346905293479 0.0
H H -0.5669012302257473 1.1586963694633137 -0.49320469052934807 0.0
C C -0.60865665052166 1.2116096975402066 -0.5847800402082959 0.0
H H -0.67946665052166 1.2399796975402066 -0.5662400402082958 0.0
C C -0.5940741895695242 1.2163442693310127 -0.6623065228556265 0.0
C C -0.4674834308873584 1.1692719312476094 -0.6849947973053067 0.0
H H -0.43917343088735833 1.1694419312476094 -0.7331547973053066 0.0
C C -0.41597291650360324 1.1200250663830367 -0.6378261123847287 0.0
H H -0.3424829165036032 1.0914950663830367 -0.6541861123847289 0.0
O O -0.28412102800344713 1.137777825834758 -0.4120154844180201 0.0
O O -0.08741049560064176 1.1214082442719395 -0.49486272064002 0.0
O O 0.13338366344976965 0.8357915844622513 -0.2600152308688311 0.0
O O -0.3297694065704728 0.873634560339926 -0.17598357684017485 0.0
N N -0.09285814282100972 0.8656500038368856 -0.22679290055973816 0.0
N N -0.22669149723613125 0.9929869363793956 -0.39683533814121547 0.0
C C -0.1215204408787822 1.1524687963039002 -0.427009457825012 0.0
C C -0.04250524122643672 1.2026846940080962 -0.4084135524325689 0.0
C C 0.09038437937318211 1.2162538756344834 -0.43188187171456505 0.0
H H 0.12459437937318207 1.1915238756344835 -0.46914187171456506 0.0
C C -0.2030443122719717 0.7662878214396228 -0.09513454436186079 0.0
H H -0.30145431227197167 0.7751578214396229 -0.07539454436186083 0.0
C C -0.16189544650610166 0.8004619266854561 -0.1489925862437676 0.0
C C 0.001299301622279078 0.795539315088766 -0.16932252218167282 0.0
C C -0.11529963098197149 1.2374090025552407 -0.35641491390017815 0.0
H H -0.21578963098197146 1.2299790025552406 -0.3376749139001782 0.0
C C -0.23036049806477876 0.8587165606116223 -0.1875706651482101 0.0
C C 0.04543703519738398 0.836961742925369 -0.22951530526592728 0.0
C C -0.25445513181865925 0.9979769830515055 -0.3281201483157726 0.0
H H -0.3099751318186592 1.0337469830515056 -0.3178901483157726 0.0
C C -0.227863017824067 0.9716280558811543 -0.27056560081607994 0.0
H H -0.25617301782406704 0.9800980558811542 -0.22342560081607996 0.0
C C -0.14184134431000395 0.9104150238452426 -0.2811971574504223 0.0
C C -0.10244809631302577 0.9020098336343598 -0.36629865053532124 0.0
H H -0.04246809631302578 0.8675798336343599 -0.3781586505353213 0.0
C C -0.12593862511031576 0.9440345561604823 -0.4020489834901113 0.0
H H -0.09418862511031573 0.9374145561604822 -0.44912898349011127 0.0
Cd Cd -0.3127283505667933 -0.5582845602749685 -0.9812889309409684 0.0
O O -0.44556465315224897 -0.45951506578332674 -1.0547674814933607 0.0
O O -0.19440737134547112 -0.5015972434439847 -1.087063702962426 0.0
O O -0.8786749272202315 -0.7654617811711988 -1.1664774730621619 0.0
O O -0.3969161689225831 -0.7776952771901978 -1.2658413931696255 0.0
N N -0.45969611953440265 -0.6138095545627112 -1.0659250481826805 0.0
N N -0.6457309975509946 -0.7537849558161831 -1.1955780752931657 0.0
C C -0.31841012513462025 -0.46598831973611227 -1.0919545502449806 0.0
C C -0.253718648653605 -0.42210097644942457 -1.1409917455485379 0.0
C C -0.14121013496126983 -0.4274762052689299 -1.170794364053335 0.0
H H -0.0663001349612698 -0.4583362052689299 -1.158154364053335 0.0
C C -0.0995630759256497 -0.37687969681362665 -1.2416591489920565 0.0
H H -0.0006530759256496853 -0.37743969681362666 -1.2633191489920566 0.0
C C -0.19525241508226676 -0.34123512120535854 -1.2537382428595816 0.0
C C -0.37331428598862915 -0.33553679749668264 -1.2182790999995274 0.0
C C -0.3834440044820682 -0.3702904792872232 -1.1715421240102035 0.0
H H -0.48105400448206825 -0.3682604792872232 -1.1490121240102036 0.0
C C -0.5568171968448963 -0.7903551285850087 -1.2513541840315776 0.0
C C -0.8016280269149982 -0.7899138455145002 -1.1962309801319388 0.0
C C -0.5458615557428268 -0.6586545852343126 -1.0407521117903833 0.0
H H -0.5742715557428268 -0.6559245852343127 -0.9926221117903834 0.0
C C -0.6102451934292541 -0.7101770513790036 -1.0852272667068468 0.0
H H -0.6810551934292541 -0.7385470513790034 -1.0666872667068468 0.0
C C -0.5671508663705358 -0.7081337824776242 -1.1546957612519653 0.0
C C -0.4639238806366372 -0.6744649747614688 -1.181420386813552 0.0
H H -0.43561388063663725 -0.6746349747614688 -1.229580386813552 0.0
C C -0.4017328529842376 -0.630785344271313 -1.1246855486130352 0.0
H H -0.3282428529842376 -0.602255344271313 -1.141045548613035 0.0
O O -0.270121423149331 -0.6370056511846729 -0.915622154190365 0.0
O O -0.10678734040967554 -0.6274297341026528 -0.9813490470743935 0.0
O O 0.150184230043012 -0.34049735159870853 -0.7610800254870146 0.0
O O -0.3643421680678709 -0.3752443086116303 -0.6721177775644138 0.0
N N -0.1066150327226017 -0.3618250362747383 -0.7369511966118056 0.0
N N -0.2459815712337456 -0.491370400404118 -0.9032381117536744 0.0
C C -0.14832806276082816 -0.6473025380722003 -0.9388373901476024 0.0
C C -0.031071181402012683 -0.7110530767960866 -0.9031793345324372 0.0
C C 0.07620986952109225 -0.7175903507235787 -0.9339603766951355 0.0
H H 0.11041986952109228 -0.6928603507235788 -0.9712203766951354 0.0
C C -0.19533695055656217 -0.260075916057376 -0.59782043184158 0.0
H H -0.29374695055656214 -0.268945916057376 -0.57808043184158 0.0
C C -0.1470632090160489 -0.2974596255681888 -0.6534550615352779 0.0
C C -0.014133827729148837 -0.286809200728558 -0.6714410829973162 0.0
C C -0.1116904249691379 -0.7367017984286437 -0.8590120659801613 0.0
H H -0.21218042496913794 -0.7292717984286436 -0.8402720659801615 0.0
C C -0.21021471325191027 -0.3575157134633893 -0.6787691988228477 0.0
C C 0.03997784422929329 -0.3345009977941945 -0.7330210404380324 0.0
C C -0.2651688714942398 -0.5052913243800958 -0.8266965891175864 0.0
H H -0.32068887149423975 -0.5410613243800959 -0.8164665891175864 0.0
C C -0.20502593574774752 -0.4621945396960659 -0.7728900715255251 0.0
H H -0.23333593574774752 -0.47066453969606586 -0.7257500715255253 0.0
C C -0.16102057563269376 -0.4044174546598915 -0.7905828331810126 0.0
C C -0.083860014639376 -0.3982102641154355 -0.8640850371682761 0.0
H H -0.02388001463937601 -0.3637802641154355 -0.8759450371682762 0.0
C C -0.1371974318354294 -0.4448499072039194 -0.9131382531288831 0.0
H H -0.10544743183542937 -0.43822990720391936 -0.9602182531288831 0.0
Cd Cd 0.3121333875328263 -1.065050980556214 0.4885039332356612 0.0
O O 0.4373296016540672 -0.960000140051089 0.5622323784182212 0.0
O O 0.19416189572158418 -1.001362995867992 0.581463627985831 0.0
O O 0.882115405593754 -1.2716641049806148 0.6530213771310649 0.0
O O 0.4205177052865461 -1.2787950474895005 0.7641166491864272 0.0
N N 0.46069832017028867 -1.1146884133263018 0.5581649554113456 0.0
N N 0.6425760612639618 -1.2604751234551022 0.6963035096456052 0.0
C C 0.31134083266122187 -0.9709065215250582 0.5921184030384458 0.0
C C 0.2895268117969998 -0.9224631452242267 0.6553160563363453 0.0
C C 0.11693668489138803 -0.9260106538106307 0.6819289447969226 0.0
H H 0.042026684891388034 -0.9568706538106309 0.6692889447969226 0.0
C C 0.11094249506154723 -0.880253292297589 0.737346586286025 0.0
H H 0.012032495061547206 -0.880813292297589 0.7590065862860249 0.0
C C 0.20376786828928872 -0.8343309840926971 0.7559675801208644 0.0
C C 0.34434830817538664 -0.8324101791692061 0.7185355483517356 0.0
C C 0.36907767148338505 -0.8743864891142734 0.6628785119547925 0.0
H H 0.46668767148338514 -0.8723564891142733 0.6403485119547926 0.0
C C 0.538515892128992 -1.2849200927481346 0.7451775043833021 0.0
C C 0.7928248167714712 -1.2912881167331935 0.7079763374846583 0.0
C C 0.5750206128675366 -1.1671104839592532 0.5453314848382398 0.0
H H 0.6034306128675367 -1.164380483959253 0.4972014848382399 0.0
C C 0.6043272633900526 -1.2112201753488794 0.58205597109676 0.0
H H 0.6751372633900528 -1.2395901753488794 0.56351597109676 0.0
C C 0.5850587413805631 -1.2146827260682498 0.6535681041280331 0.0
C C 0.4967303281073435 -1.1715250534125914 0.6874755245981976 0.0
H H 0.46842032810734346 -1.1716950534125914 0.7356355245981975 0.0
C C 0.3987782444251432 -1.1192163181538115 0.6304210770005341 0.0
H H 0.3252882444251432 -1.0906863181538116 0.6467810770005342 0.0
O O 0.2661763942107051 -1.1445681835066794 0.4014208598669365 0.0
O O 0.08764374448934939 -1.1221171866747464 0.49292313074397803 0.0
O O -0.13346389973155895 -0.8423240129165336 0.2571409352967206 0.0
O O 0.33554189491829567 -0.8732841886556421 0.16862197989310387 0.0
N N 0.08784274604773841 -0.8614280454110581 0.2259048681121586 0.0
N N 0.21738573936836597 -0.9946004013092805 0.3966363284122628 0.0
C C 0.1504052910368842 -1.1550938554972057 0.4367893866758388 0.0
C C 0.043017731521236766 -1.2025018094186177 0.40014522802492736 0.0
C C -0.11234320001410883 -1.2148102252806696 0.4393213554778433 0.0
H H -0.14655320001410882 -1.1900802252806697 0.47658135547784325 0.0
C C 0.1887522803421626 -0.7608966324025354 0.08125559530922179 0.0
H H 0.2871622803421627 -0.7697666324025354 0.06151559530922182 0.0
C C 0.13814068475677052 -0.8066451695994666 0.14089905963644922 0.0
C C 0.000614252304988215 -0.792703805159942 0.16959233757606995 0.0
C C 0.11972363343920077 -1.249369205899354 0.3584864411046343 0.0
H H 0.22021363343920075 -1.241939205899354 0.3397464411046343 0.0
C C 0.23527904025921278 -0.8569829747187401 0.19104004480439266 0.0
C C -0.04481512828437912 -0.8337755737412151 0.23392534810988985 0.0
C C 0.26656330687525503 -1.0067063662224325 0.33406145521452046 0.0
H H 0.32208330687525505 -1.0424763662224326 0.32383145521452056 0.0
C C 0.22278806774039686 -0.9692784339907541 0.27992391970752173 0.0
H H 0.2510980677403969 -0.9777484339907541 0.23278391970752177 0.0
C C 0.13203420655657488 -0.9174165548986228 0.29201984853797425 0.0
C C 0.07559439125430745 -0.9017635997383449 0.3564828224998254 0.0
H H 0.015614391254307448 -0.8673335997383449 0.3683428224998254 0.0
C C 0.15717347364760953 -0.942819887810676 0.4110155377375416 0.0
H H 0.1254234736476095 -0.9361998878106761 0.4580955377375416 0.0
