_cell_length_a 8.39304
_cell_length_b 22.23511
_cell_length_c 18.74218
_cell_angle_alpha 90.0
_cell_angle_beta 94.0312
_cell_angle_gamma 90.0
_symmetry_space_group_name_H-M         'P 1'
_symmetry_Int_Tables_number            1
loop_
_symmetry_equiv_pos_as_xyz
   'x, y, z'
                         
loop_
_atom_site_label
_atom_site_type_symbol
_atom_site_fract_x 
_atom_site_fract_y
_atom_site_fract_z
_atom_site_charge
Cd Cd 0.3187669095430558 0.5635063882501745 0.9855198148050536 0.0
O O 0.44821413998155546 0.46056763293013164 1.0515910194962699 0.0
O O 0.19794648158319994 0.5024078733593217 1.073469687462395 0.0
O O 0.8907831738198436 0.7734070516789484 1.1537546540777057 0.0
O O 0.4358871491200514 0.7733703620731573 1.2661016683636404 0.0
N N 0.4557007024929429 0.6185015864959573 1.0610917492863132 0.0
N N 0.6543777380769965 0.7611638184333306 1.2035296253713477 0.0
C C 0.295308811357365 0.46136554259013773 1.0896014053177716 0.0
C C 0.26182998877812114 0.41712212723557596 1.151431068916141 0.0
C C 0.1328848621150622 0.42267999993762095 1.1884526865199025 0.0
H H 0.057974862115062156 0.453539999937621 1.1758126865199026 0.0
C C 0.08806290562097097 0.38151113186088786 1.2346816682844048 0.0
H H -0.010847094379029025 0.38207113186088787 1.2563416682844049 0.0
C C 0.22578181902018152 0.3328674877615132 1.2523434521222203 0.0
C C 0.3675157012701186 0.3324383120533555 1.2233858392456263 0.0
C C 0.40014827951852644 0.3704042294733695 1.1624953237088411 0.0
H H 0.4977582795185266 0.3683742294733695 1.139965323708841 0.0
C C 0.5588377822330575 0.7898660532284358 1.2492061107057488 0.0
C C 0.7790059722806029 0.7832115547189 1.2020018133446913 0.0
C C 0.5720603195122743 0.6591730616277841 1.0435068155217833 0.0
H H 0.6004703195122744 0.6564430616277842 0.9953768155217834 0.0
C C 0.6255275138270371 0.7013738643928076 1.0875842076633027 0.0
H H 0.696337513827037 0.7297438643928075 1.0690442076633027 0.0
C C 0.5981175041612148 0.7105560724762202 1.1536091262646986 0.0
C C 0.46741539343232635 0.667196715172473 1.1795471142276999 0.0
H H 0.4391053934323264 0.667366715172473 1.2277071142277 0.0
C C 0.4065812936298028 0.6292305172197908 1.1372724928882727 0.0
H H 0.3330912936298028 0.6007005172197909 1.1536324928882726 0.0
O O 0.27573533056043337 0.6452164204987378 0.9103750044385669 0.0
O O 0.07814529686283166 0.6200310750484811 0.9911898114609452 0.0
O O -0.13559100686902775 0.34383304780464663 0.7595286378053496 0.0
O O 0.3430983717316062 0.37353170104631384 0.669757168352234 0.0
N N 0.09609468167195076 0.3719187426779244 0.7296437796490883 0.0
N N 0.21737939411615254 0.49768616184963843 0.8978368804595511 0.0
C C 0.1294293002560284 0.6556862576007897 0.9379557151270776 0.0
C C 0.05853735464509639 0.7037682338893794 0.9082999968069877 0.0
C C -0.08457537180317451 0.714224826872742 0.9327042196563752 0.0
H H -0.11878537180317454 0.6894948268727421 0.9699642196563751 0.0
C C 0.19908507959331914 0.2728066447093061 0.589088241801791 0.0
H H 0.29749507959331917 0.28167664470930603 0.569348241801791 0.0
C C 0.15239216104033948 0.3021201128215626 0.6371315424328489 0.0
C C 0.0009504961923348489 0.2830027870171844 0.6676040556307642 0.0
C C 0.12105645136063527 0.7386456112686145 0.8533848724173055 0.0
H H 0.2215464513606353 0.7312156112686145 0.8346448724173056 0.0
C C 0.22828205365520352 0.35041227398131713 0.6831765715329563 0.0
C C -0.04594924274708592 0.33273492413053085 0.7235750798179713 0.0
C C 0.2560931678334318 0.5105706563524111 0.8274005742907985 0.0
H H 0.3116131678334318 0.5463406563524112 0.8171705742907985 0.0
C C 0.2350938255033349 0.4660469831516505 0.7720422358513445 0.0
H H 0.2634038255033349 0.4745169831516505 0.7249022358513445 0.0
C C 0.14793778221850995 0.40757468207934416 0.789835050663552 0.0
C C 0.10658886948446351 0.40418152342056857 0.8515862923337588 0.0
H H 0.04660886948446353 0.36975152342056855 0.8634462923337589 0.0
C C 0.1400627605135511 0.44949057145464216 0.911599965812432 0.0
H H 0.10831276051355107 0.44287057145464215 0.958679965812432 0.0
Cd Cd -0.3191233095713244 1.060371172184898 -0.495379522512355 0.0
O O -0.4213797609631253 0.9596970690029129 -0.555512469167984 0.0
O O -0.22429948822800794 1.008335199608063 -0.5730139187006508 0.0
O O -0.9091284229275126 1.2716623840063506 -0.6591269859008491 0.0
O O -0.4009918902128624 1.264926866161775 -0.761519678623412 0.0
N N -0.4716038696327582 1.118545279587474 -0.5690117243636115 0.0
N N -0.6340006402096958 1.2610837983503198 -0.7047218383793358 0.0
C C -0.32273260071359827 0.9695454342924861 -0.5839891723373817 0.0
C C -0.28586901875257287 0.9184547221940157 -0.6492504427434515 0.0
C C -0.143794651878322 0.9291071944279419 -0.6806447619116043 0.0
H H -0.06888465187832198 0.9599671944279421 -0.6680047619116043 0.0
C C -0.0998663003841947 0.8829731820523674 -0.7316421703721684 0.0
H H -0.0009563003841946685 0.8835331820523674 -0.7533021703721684 0.0
C C -0.22871999064084983 0.8432183655547801 -0.7480193289337403 0.0
C C -0.34845438979644827 0.8329102670179336 -0.7155697061299066 0.0
C C -0.3859941970314079 0.8793476606523152 -0.6712333701492857 0.0
H H -0.483604197031408 0.8773176606523151 -0.6487033701492858 0.0
C C -0.5472315510956297 1.2851800307048362 -0.7505478904699007 0.0
C C -0.7981330216647146 1.289809121995415 -0.6967061885061171 0.0
C C -0.5615701931729564 1.1589570472458863 -0.5418437751761828 0.0
H H -0.5899801931729566 1.1562270472458862 -0.49371377517618287 0.0
C C -0.6204120220598789 1.207281735722174 -0.5873812128691314 0.0
H H -0.691222022059879 1.235651735722174 -0.5688412128691313 0.0
C C -0.5951253815514153 1.2081879301710268 -0.6578018910606837 0.0
C C -0.4974660866310244 1.1699182071806855 -0.6776290658155015 0.0
H H -0.4691560866310243 1.1700882071806855 -0.7257890658155014 0.0
C C -0.4150918869706083 1.1213903196920179 -0.6312659361337897 0.0
H H -0.3416018869706083 1.092860319692018 -0.6476259361337899 0.0
O O -0.2618648892633839 1.140054108816053 -0.414451909901311 0.0
O O -0.09341659514759464 1.1276127137382426 -0.48087009360332 0.0
O O 0.13002830810914912 0.84610949746279 -0.2663432907495815 0.0
O O -0.33874855120114195 0.8707197897879307 -0.17749164892184857 0.0
N N -0.0991699393101426 0.8705454566465752 -0.23337955803037785 0.0
N N -0.22306673327229187 0.9972804924002285 -0.39317278114800275 0.0
C C -0.13059414171790007 1.1542966166736104 -0.4288949329420441 0.0
C C -0.04710408594784355 1.2118201999476574 -0.4103844250996148 0.0
C C 0.0824894979419663 1.2235084419683306 -0.43134256070184107 0.0
H H 0.11669949794196627 1.1987784419683307 -0.4686025607018411 0.0
C C -0.19596172274648047 0.7634325917513589 -0.08491316224086454 0.0
H H -0.29437172274648055 0.772302591751359 -0.06517316224086457 0.0
C C -0.12727349683897163 0.80592315036387 -0.14468043683539863 0.0
C C 0.021763659323828843 0.7823201400592954 -0.17378448560340673 0.0
C C -0.10041977179739561 1.243123273158021 -0.36291738966000914 0.0
H H -0.2009097717973956 1.2356932731580212 -0.3441773896600092 0.0
C C -0.21132839791919772 0.8528954421693364 -0.183653179098092 0.0
C C 0.033059175564025364 0.8365457808263019 -0.22918766334395108 0.0
C C -0.2744862385540348 1.0026804984277315 -0.3317005775282306 0.0
H H -0.33000623855403477 1.0384504984277316 -0.32147057752823066 0.0
C C -0.22150698806650712 0.963991050796738 -0.278319621653886 0.0
H H -0.24981698806650712 0.972461050796738 -0.23117962165388606 0.0
C C -0.15160212801629683 0.9115333337514075 -0.282509410994579 0.0
C C -0.09833157030716444 0.9085032052406362 -0.35300560352366256 0.0
H H -0.03835157030716445 0.8740732052406364 -0.36486560352366254 0.0
C C -0.1337387821196354 0.9400033806271579 -0.40390035995834395 0.0
H H -0.10198878211963541 0.933383380627158 -0.4509803599583439 0.0
Cd Cd -0.3270999008767182 -0.5602990270735488 -0.9898351683465381 0.0
O O -0.4446994901467659 -0.4595726007542254 -1.048054221715791 0.0
O O -0.20774855039247242 -0.5073644595438497 -1.0833207601579085 0.0
O O -0.9093666095856671 -0.7671001864498292 -1.1571599515455635 0.0
O O -0.4186650558909691 -0.7682592079921371 -1.2645254943331108 0.0
N N -0.4426825258605474 -0.6252899532308286 -1.0613070793345627 0.0
N N -0.6478442134651582 -0.7592150342003605 -1.2070622173245387 0.0
C C -0.2993582119363389 -0.4663855472069422 -1.0918865309378878 0.0
C C -0.2586154985767243 -0.41691608840212124 -1.1479124976857802 0.0
C C -0.1481014966252028 -0.4169906953912816 -1.175893359845158 0.0
H H -0.07319149662520276 -0.44785069539128164 -1.163253359845158 0.0
C C -0.10729345722657821 -0.37301086685457746 -1.2345817290925736 0.0
H H -0.008383457226578201 -0.37357086685457747 -1.2562417290925736 0.0
C C -0.2243577733067352 -0.3339130116032936 -1.2447163042671947 0.0
C C -0.3429638106377742 -0.3379494748806727 -1.2240246603643448 0.0
C C -0.3803853298677618 -0.3738700094385283 -1.159695082437717 0.0
H H -0.47799532986776194 -0.37184000943852824 -1.137165082437717 0.0
C C -0.5401207641757857 -0.7831312529454215 -1.2604859216017985 0.0
C C -0.7997485388152357 -0.7888822980708239 -1.2033722866866376 0.0
C C -0.557443062970642 -0.6648132377117845 -1.044073358898869 0.0
H H -0.5858530629706419 -0.6620832377117847 -0.9959433588988692 0.0
C C -0.6359044714061828 -0.7090156995806395 -1.092063314220139 0.0
H H -0.7067144714061829 -0.7373856995806394 -1.073523314220139 0.0
C C -0.5962255054781804 -0.7111373802707394 -1.1607617065451306 0.0
C C -0.4701763854859666 -0.6656035885773768 -1.1811372122292 0.0
H H -0.4418663854859666 -0.6657735885773768 -1.2292972122292 0.0
C C -0.40518266816037657 -0.6301057080995538 -1.1374823059682109 0.0
H H -0.3316926681603765 -0.6015757080995539 -1.153842305968211 0.0
O O -0.2723705859325935 -0.6388823376449566 -0.9054813509591534 0.0
O O -0.09040636065356569 -0.6227151691185612 -0.9868685921000606 0.0
O O 0.15465725303530636 -0.34344454699300897 -0.7674194394181729 0.0
O O -0.32814113600259465 -0.3809526489804146 -0.6743330405186391 0.0
N N -0.1251176253711572 -0.36421916908934304 -0.7302883925731714 0.0
N N -0.21778016082690888 -0.4931547374740521 -0.8930381214116506 0.0
C C -0.12506360303780314 -0.6590830055817737 -0.9337562459911943 0.0
C C -0.06091061032166075 -0.7029975585111963 -0.9091712897699782 0.0
C C 0.08977381990276463 -0.7186896092265755 -0.9417453094014308 0.0
H H 0.12398381990276464 -0.6939596092265756 -0.9790053094014306 0.0
C C -0.1992023300424286 -0.2666497397227968 -0.585745576175835 0.0
H H -0.2976123300424286 -0.2755197397227968 -0.566005576175835 0.0
C C -0.1349785319932383 -0.30540068169634915 -0.6485702609344569 0.0
C C 0.004882132213629067 -0.2892413059932096 -0.6671873292953483 0.0
C C -0.10777427767073713 -0.7476073937134025 -0.8526205468368139 0.0
H H -0.20826427767073716 -0.7401773937134024 -0.8338805468368139 0.0
C C -0.22698191307665253 -0.35212942060684516 -0.6869018213752013 0.0
C C 0.025978836356420974 -0.32990706570100453 -0.7237758835429768 0.0
C C -0.278229987117718 -0.5024901562434019 -0.8269560262516106 0.0
H H -0.33374998711771797 -0.538260156243402 -0.8167260262516106 0.0
C C -0.21189518641379054 -0.4629575586631578 -0.7738345794068905 0.0
H H -0.24020518641379054 -0.4714275586631578 -0.7266945794068906 0.0
C C -0.1291543958585179 -0.41239358297966455 -0.7955357460195107 0.0
C C -0.1095830352295743 -0.4067662143090755 -0.8591317019996434 0.0
H H -0.049603035229574315 -0.3723362143090755 -0.8709917019996435 0.0
C C -0.1420208110280825 -0.4507388566150526 -0.9070896436308011 0.0
H H -0.11027081102808248 -0.4441188566150525 -0.9541696436308011 0.0
Cd Cd 0.307611881726324 -1.0500728011201141 0.4846893861516148 0.0
O O 0.43061770512604103 -0.9623793773705746 0.5636468299453784 0.0
O O 0.20677176757760965 -1.011737008889575 0.5733308326601007 0.0
O O 0.9108699542743396 -1.2743766311459315 0.6643408767283295 0.0
O O 0.40312077498122867 -1.2731918909504316 0.7707637593699507 0.0
N N 0.45319796477762514 -1.120235071294624 0.5739059678648145 0.0
N N 0.6403775148557174 -1.2513266576823872 0.696400981533667 0.0
C C 0.3139538159697099 -0.9695671939458143 0.5953506982305927 0.0
C C 0.2765665510318852 -0.921396503476275 0.6395382897130543 0.0
C C 0.14506528338957134 -0.9281011644968461 0.6833809506253525 0.0
H H 0.07015528338957135 -0.9589611644968463 0.6707409506253525 0.0
C C 0.09819428416766289 -0.88153409885498 0.7355324744432611 0.0
H H -0.0007157158323371266 -0.88209409885498 0.7571924744432611 0.0
C C 0.2044630746804305 -0.8392642724601985 0.7537643905537437 0.0
C C 0.3520710659237464 -0.8362109200276723 0.7217700743766066 0.0
C C 0.36980962357994185 -0.875587995701611 0.6684603846085679 0.0
H H 0.467419623579942 -0.8735579957016111 0.6459303846085679 0.0
C C 0.5550949226830647 -1.2861700167168681 0.7560003327328478 0.0
C C 0.7866557252268424 -1.2876507126183263 0.6945813642747874 0.0
C C 0.5439955792041178 -1.162896949267396 0.5369080382450037 0.0
H H 0.5724055792041179 -1.1601669492673958 0.48877803824500377 0.0
C C 0.6376040063814871 -1.203724511198907 0.5794621972274427 0.0
H H 0.7084140063814872 -1.232094511198907 0.5609221972274426 0.0
C C 0.581875786825281 -1.208973378913712 0.6589299246715297 0.0
C C 0.49798270685577783 -1.1699521373687394 0.6858316088793449 0.0
H H 0.4696727068557778 -1.1701221373687396 0.7339916088793448 0.0
C C 0.43293169728778313 -1.1208842739708866 0.6284248917338467 0.0
H H 0.35944169728778314 -1.0923542739708867 0.644784891733847 0.0
O O 0.27126213474968014 -1.1376619558300898 0.4098646738098566 0.0
O O 0.07489480219794602 -1.1228430536964908 0.4946413649955248 0.0
O O -0.16385863225058683 -0.8364919231907108 0.26447108126733004 0.0
O O 0.33841297723843244 -0.8794517830376747 0.18120237956094654 0.0
N N 0.09677881279452796 -0.8672950186764059 0.2280070204080973 0.0
N N 0.2315231235800355 -1.0002952940295764 0.39210112961939075 0.0
C C 0.13569927786601169 -1.1543983276002303 0.4280607485901231 0.0
C C 0.03357608712871011 -1.2085932277864897 0.4100763728404706 0.0
C C -0.08010170528954351 -1.2213344826285721 0.4306700104600864 0.0
H H -0.11431170528954347 -1.196604482628572 0.46793001046008637 0.0
C C 0.1888398878462139 -0.7678842984873143 0.09755485817223959 0.0
H H 0.2872498878462139 -0.7767542984873144 0.07781485817223963 0.0
C C 0.1465510678150203 -0.7995716807263724 0.15153939541130515 0.0
C C -0.012141805258516837 -0.789644154562564 0.1741464972961607 0.0
C C 0.09975228812330618 -1.2376106471291237 0.3530680390079211 0.0
H H 0.20024228812330616 -1.230180647129124 0.33432803900792113 0.0
C C 0.20243333684536233 -0.8540621538580415 0.1807806335585954 0.0
C C -0.035455560763249724 -0.8336374058976472 0.2283505729587379 0.0
C C 0.2692710409374372 -1.0064643434669256 0.3251517387043266 0.0
H H 0.3247910409374372 -1.0422343434669257 0.31492173870432666 0.0
C C 0.24215387556238147 -0.968004125106328 0.2764469297010283 0.0
H H 0.2704638755623815 -0.976474125106328 0.2293069297010283 0.0
C C 0.12567832955886188 -0.9081636753187611 0.29422630620014956 0.0
C C 0.08036856709938252 -0.9023876564873473 0.36097978795800195 0.0
H H 0.020388567099382512 -0.8679576564873474 0.37283978795800193 0.0
C C 0.12739682746755115 -0.9402948200810829 0.4129123395022858 0.0
H H 0.09564682746755113 -0.9336748200810828 0.4599923395022858 0.0
