_cell_length_a 8.39304
_cell_length_b 22.23511
_cell_length_c 18.74218
_cell_angle_alpha 90.0
_cell_angle_beta 94.0312
_cell_angle_gamma 90.0
_symmetry_space_group_name_H-M         'P 1'
_symmetry_Int_Tables_number            1
loop_
_symmetry_equiv_pos_as_xyz
   'x, y, z'
                         
loop_
_atom_site_label
_atom_site_type_symbol
_atom_site_fract_x 
_atom_site_fract_y
_atom_site_fract_z
_atom_site_charge
Cd Cd 0.3220639947571261 0.55425478062729 0.9812167252403493 0.0
O O 0.43646097277846435 0.45678950491252995 1.058629040100355 0.0
O O 0.2063138807631112 0.5000146129025488 1.0757768360837565 0.0
O O 0.8800517960632651 0.7721140840155993 1.1592044243247088 0.0
O O 0.4044528567640037 0.7739851992382664 1.2629660085404373 0.0
N N 0.4624289965326255 0.6219007381767401 1.0577221054013541 0.0
N N 0.6572008439429389 0.756547204497149 1.197104789824231 0.0
C C 0.3090467619957178 0.47127442371174916 1.0960318152013298 0.0
C C 0.2923137534664992 0.42207040750599223 1.154205719271354 0.0
C C 0.14894931432235006 0.42309696522539797 1.1821076432140847 0.0
H H 0.07403931432235003 0.45395696522539797 1.1694676432140845 0.0
C C 0.08759626376185181 0.38122962931891513 1.230701607563657 0.0
H H -0.011313736238148202 0.38178962931891514 1.252361607563657 0.0
C C 0.1979199892047457 0.3360621975950215 1.2498830053811603 0.0
C C 0.33519001711740665 0.33684287021530257 1.2143650850506558 0.0
C C 0.3719775291602065 0.3736758775109339 1.1612409426591404 0.0
H H 0.4695875291602065 0.3716458775109339 1.1387109426591404 0.0
C C 0.551117422543008 0.7901476249034155 1.2588211185170517 0.0
C C 0.808995916087789 0.790348517762607 1.2050120824442776 0.0
C C 0.5562021205700127 0.6677317318469584 1.0437081293120856 0.0
H H 0.5846121205700128 0.6650017318469587 0.9955781293120856 0.0
C C 0.6098563580864373 0.7082502656138985 1.082305869411665 0.0
H H 0.6806663580864375 0.7366202656138984 1.063765869411665 0.0
C C 0.572403490820547 0.7138557317098917 1.1495092079231128 0.0
C C 0.47468530341310206 0.6621183412878578 1.1816859017418697 0.0
H H 0.4463753034131021 0.6622883412878579 1.22984590174187 0.0
C C 0.4241414819100436 0.6261449485533839 1.1322412257926244 0.0
H H 0.3506514819100435 0.5976149485533839 1.1486012257926244 0.0
O O 0.27632004065486343 0.6462191043822657 0.9079042069300972 0.0
O O 0.09956802368613137 0.6277588503465853 0.9929291171867141 0.0
O O -0.14268709407600155 0.3342240018048505 0.768573241166908 0.0
O O 0.3567422720226701 0.3749760230170479 0.673178941650642 0.0
N N 0.11719767371021358 0.3694598689920569 0.729215719588577 0.0
N N 0.22828441709959216 0.4919915309275443 0.8911981338853833 0.0
C C 0.14412335649830937 0.657654837918975 0.9365068058007628 0.0
C C 0.035685216276662005 0.70903851039779 0.9037897324461669 0.0
C C -0.08130282504853596 0.7195520252192901 0.9413519386832194 0.0
H H -0.11551282504853601 0.6948220252192902 0.9786119386832193 0.0
C C 0.19727156318555955 0.26404824073982386 0.5922874205186411 0.0
H H 0.29568156318555955 0.27291824073982385 0.5725474205186412 0.0
C C 0.15531182204649346 0.29938898025935085 0.6466745365881063 0.0
C C -0.016420267216336153 0.2846898836018234 0.676368647394868 0.0
C C 0.10619714276218294 0.7487108288148216 0.8563255586654381 0.0
H H 0.20668714276218297 0.7412808288148216 0.8375855586654383 0.0
C C 0.22543099284941523 0.3513714446570462 0.6859557082053995 0.0
C C -0.03903181973037059 0.3326756314185437 0.7303722613905526 0.0
C C 0.27422078098828206 0.49989744129231695 0.8300160454336853 0.0
H H 0.329740780988282 0.5356674412923171 0.8197860454336854 0.0
C C 0.20748480485837467 0.4600808032758615 0.7667911243397147 0.0
H H 0.23579480485837467 0.46855080327586146 0.7196511243397148 0.0
C C 0.15772646468370166 0.41458629300290867 0.7900563040272548 0.0
C C 0.10393706650233414 0.39646425886119463 0.8540497769656663 0.0
H H 0.04395706650233416 0.3620342588611946 0.8659097769656664 0.0
C C 0.14284189798076113 0.44130425007717766 0.9023345306407571 0.0
H H 0.11109189798076112 0.4346842500771776 0.9494145306407571 0.0
Cd Cd -0.3243361508959416 1.0576547874075592 -0.49170932773304865 0.0
O O -0.4148175259351469 0.9549910950394902 -0.5602150893931009 0.0
O O -0.192211762561381 1.007559150918164 -0.5806753347598022 0.0
O O -0.8922769116309676 1.269391470585707 -0.6601197609226481 0.0
O O -0.4119872373331504 1.2664511383389383 -0.7617071568263322 0.0
N N -0.45062677487401753 1.1198780711273095 -0.5628098852184142 0.0
N N -0.6513781241250561 1.2636470312286465 -0.7008359456479311 0.0
C C -0.3123595402442807 0.9712327993481703 -0.5932834780042244 0.0
C C -0.26161016050442076 0.9192125077096805 -0.6517784236073488 0.0
C C -0.12180970200700586 0.9165582916366632 -0.6857545758440634 0.0
H H -0.04689970200700586 0.9474182916366635 -0.6731145758440634 0.0
C C -0.09070317666093773 0.8857663534422499 -0.7361465669430785 0.0
H H 0.008206823339062282 0.8863263534422499 -0.7578065669430784 0.0
C C -0.19752072429454828 0.8425063237518903 -0.7485982267787744 0.0
C C -0.3541243208752241 0.8304473164659223 -0.7146286372084968 0.0
C C -0.3824960465510943 0.8793039405261729 -0.6571701239770946 0.0
H H -0.4801060465510944 0.8772739405261729 -0.6346401239770946 0.0
C C -0.5647420372261931 1.2888917156263222 -0.7469581001542172 0.0
C C -0.7877354159526033 1.285794596494484 -0.6925381564503784 0.0
C C -0.5687466043449281 1.165316693460674 -0.5476281369131297 0.0
H H -0.5971566043449282 1.162586693460674 -0.49949813691312983 0.0
C C -0.6356457693216108 1.2094637662054213 -0.5924861645508334 0.0
H H -0.7064557693216109 1.2378337662054213 -0.5739461645508334 0.0
C C -0.5852097277356805 1.2150713606130865 -0.6486185329778922 0.0
C C -0.469910039254619 1.162279502499761 -0.6762541209150914 0.0
H H -0.441600039254619 1.162449502499761 -0.7244141209150914 0.0
C C -0.40392694074475494 1.1186927779488511 -0.6341692526595285 0.0
H H -0.3304369407447549 1.0901627779488512 -0.6505292526595287 0.0
O O -0.27285918736337345 1.1399828996071462 -0.41326445630297526 0.0
O O -0.09523129218652271 1.1190147984900056 -0.48002787973469563 0.0
O O 0.1615746018179008 0.8428802041848271 -0.2570761475090511 0.0
O O -0.3256251805142137 0.8738323573265173 -0.18040352399501497 0.0
N N -0.12005674594946054 0.8677067251490053 -0.228258066439217 0.0
N N -0.23592122213976133 0.9979807392398322 -0.3980221946869586 0.0
C C -0.1381397249681516 1.14675615535478 -0.43899760494682144 0.0
C C -0.03883058604632241 1.2121687467159217 -0.40625295255111543 0.0
C C 0.08437156688774435 1.2217916348899112 -0.44423901466437166 0.0
H H 0.11858156688774434 1.1970616348899112 -0.4814990146643716 0.0
C C -0.1871890621603602 0.763340303225385 -0.08515633148526078 0.0
H H -0.28559906216036024 0.7722103032253851 -0.0654163314852608 0.0
C C -0.1441316287812653 0.8043123668064192 -0.14371089450410102 0.0
C C 0.0012247551953526417 0.7946372112211779 -0.17235518444173387 0.0
C C -0.1149963208524962 1.2400151805601725 -0.35274434464981214 0.0
H H -0.21548632085249617 1.2325851805601726 -0.33400434464981216 0.0
C C -0.20606066439165516 0.8509473576010899 -0.19060623961564804 0.0
C C 0.03743851835896392 0.8356751500666654 -0.2272167853262764 0.0
C C -0.26728993104624627 0.9988327546215926 -0.32359607431015475 0.0
H H -0.3228099310462462 1.0346027546215928 -0.31336607431015484 0.0
C C -0.21358830121434474 0.9655632495894005 -0.2791029921188503 0.0
H H -0.24189830121434475 0.9740332495894005 -0.23196299211885035 0.0
C C -0.1437879908433304 0.9052719697180649 -0.28469724600849594 0.0
C C -0.10464465436130156 0.9062056859454617 -0.36451569776219755 0.0
H H -0.04466465436130157 0.8717756859454617 -0.3763756977621976 0.0
C C -0.1431453167109549 0.9445705342979358 -0.41043763641917 0.0
H H -0.1113953167109549 0.9379505342979357 -0.45751763641917 0.0
Cd Cd -0.29735621072072244 -0.5575489467877953 -0.9829886411439657 0.0
O O -0.4171600439785876 -0.463715366957809 -1.0631667264137785 0.0
O O -0.19576902936557242 -0.5074199298220289 -1.0708425580033802 0.0
O O -0.8809880475055037 -0.7727156008090014 -1.1560299203955584 0.0
O O -0.40717910695082826 -0.767633530254286 -1.266871442096661 0.0
N N -0.44656320240197117 -0.6182813016497113 -1.0711686202574053 0.0
N N -0.6377418935477515 -0.7551770219220533 -1.2078347667136293 0.0
C C -0.30467643767631375 -0.4686959585587158 -1.0975397631601091 0.0
C C -0.2726534843751766 -0.4248696820710815 -1.1527045109414535 0.0
C C -0.12679977051638713 -0.4293121744526333 -1.1790866787044247 0.0
H H -0.05188977051638709 -0.46017217445263336 -1.1664466787044245 0.0
C C -0.09263669484694621 -0.3758754614013844 -1.2323878341286347 0.0
H H 0.006273305153053804 -0.3764354614013844 -1.2540478341286347 0.0
C C -0.19496832939199948 -0.3396191365020801 -1.2512637846669774 0.0
C C -0.3567603556406335 -0.3356120752039236 -1.2259114746625195 0.0
C C -0.3912453434901606 -0.37776202604097253 -1.172217224673445 0.0
H H -0.4888553434901607 -0.37573202604097256 -1.149687224673445 0.0
C C -0.5509782162191628 -0.7856575807444015 -1.2531425599371062 0.0
C C -0.7925960784576035 -0.7847583911426516 -1.1946588843357477 0.0
C C -0.5707105239122673 -0.6629993817341662 -1.0434351306521366 0.0
H H -0.5991205239122673 -0.6602693817341664 -0.9953051306521368 0.0
C C -0.623843706680466 -0.7131210180529748 -1.0865474386195637 0.0
H H -0.694653706680466 -0.7414910180529747 -1.0680074386195637 0.0
C C -0.5641277913547121 -0.7086900415063212 -1.1498719520189542 0.0
C C -0.48526553401111727 -0.668187845974186 -1.1742082258908775 0.0
H H -0.4569555340111173 -0.668357845974186 -1.2223682258908775 0.0
C C -0.4305488748014033 -0.6187511311479491 -1.1330092186936545 0.0
H H -0.35705887480140325 -0.590221131147949 -1.1493692186936546 0.0
O O -0.28252863220038926 -0.6423603585728729 -0.9060507754150683 0.0
O O -0.08040179631337169 -0.6227230915997032 -0.9823132206171019 0.0
O O 0.1398623554102722 -0.3382536693629702 -0.7680227362837907 0.0
O O -0.3468704684137187 -0.37076913805675754 -0.670814013503461 0.0
N N -0.12484013916591594 -0.36504254432506617 -0.7322233204174733 0.0
N N -0.22457849620299106 -0.5007140411493771 -0.8965573561361715 0.0
C C -0.12704166031176756 -0.6496899410232184 -0.9329953451243066 0.0
C C -0.032111682489462647 -0.7065854080525414 -0.9079243559124636 0.0
C C 0.11031052417535887 -0.7164313418357499 -0.9335666610359379 0.0
H H 0.14452052417535888 -0.6917013418357499 -0.9708266610359378 0.0
C C -0.19740454366311502 -0.2687820267717002 -0.5888589061654914 0.0
H H -0.295814543663115 -0.27765202677170026 -0.5691189061654914 0.0
C C -0.1306914118841911 -0.3022218529170075 -0.6430492315697854 0.0
C C 0.001434246210561564 -0.29461936543825895 -0.6700509576239623 0.0
C C -0.09006314268737473 -0.7463426758693587 -0.855948333592534 0.0
H H -0.19055314268737475 -0.7389126758693586 -0.837208333592534 0.0
C C -0.2146010568697131 -0.35809152413261897 -0.6875526966121225 0.0
C C 0.030513566595760343 -0.33215046025501427 -0.7359562453169466 0.0
C C -0.2558488006730074 -0.5091119154248421 -0.830443153224945 0.0
H H -0.3113688006730074 -0.5448819154248422 -0.820213153224945 0.0
C C -0.21443849243167173 -0.4623840575955891 -0.7810323838357104 0.0
H H -0.24274849243167174 -0.47085405759558907 -0.7338923838357104 0.0
C C -0.15871120711394787 -0.4093824895725993 -0.7869914494442335 0.0
C C -0.0941139877395696 -0.4057584307548174 -0.8581962332251293 0.0
H H -0.03413398773956961 -0.37132843075481736 -0.8700562332251294 0.0
C C -0.1266858379441744 -0.44560118211111727 -0.9019492135031683 0.0
H H -0.09493583794417439 -0.4389811821111172 -0.9490292135031683 0.0
Cd Cd 0.30195882324040835 -1.0625214644099508 0.48757400819111946 0.0
O O 0.4357266508684409 -0.9554051340681303 0.5533935309836633 0.0
O O 0.21577860734121065 -1.0067956516989611 0.5772319966792131 0.0
O O 0.8793168421118674 -1.2741622382820883 0.6561151860679709 0.0
O O 0.3982107608911239 -1.267261895841474 0.762012818230263 0.0
N N 0.4556653091760213 -1.12254093709462 0.5693508616878019 0.0
N N 0.6370222452356726 -1.2507109312464497 0.697576952353136 0.0
C C 0.30065722080979923 -0.9611701942135432 0.5923756863363316 0.0
C C 0.260115946698877 -0.9187754677827944 0.6446175422266552 0.0
C C 0.1200834504666371 -0.9233586027151756 0.6867299793294687 0.0
H H 0.0451734504666371 -0.9542186027151758 0.6740899793294687 0.0
C C 0.08494532046307764 -0.8791728800252807 0.7345346749427446 0.0
H H -0.013964679536922403 -0.8797328800252807 0.7561946749427445 0.0
C C 0.22567919558827473 -0.8378545744115893 0.7493383152481045 0.0
C C 0.36598995415064806 -0.8299140360572599 0.7245256177686509 0.0
C C 0.38455890074707244 -0.8757709569276819 0.6591091980653971 0.0
H H 0.4821689007470725 -0.8737409569276819 0.6365791980653972 0.0
C C 0.5637818067309068 -1.2883793391777107 0.7491460506229971 0.0
C C 0.7762918493874282 -1.2909206691639625 0.6939372275706217 0.0
C C 0.5480435134263978 -1.1655316001268772 0.5424004406979218 0.0
H H 0.5764535134263978 -1.162801600126877 0.494270440697922 0.0
C C 0.6324777181558173 -1.2014657564463507 0.5871038408229166 0.0
H H 0.7032877181558175 -1.2298357564463507 0.5685638408229164 0.0
C C 0.5803048914955017 -1.2091792108888855 0.6477638125367443 0.0
C C 0.46694527074799447 -1.1653281178177735 0.6785520111080026 0.0
H H 0.43863527074799447 -1.1654981178177735 0.7267120111080025 0.0
C C 0.400885168302312 -1.129323532399513 0.6258228859675056 0.0
H H 0.32739516830231197 -1.100793532399513 0.6421828859675057 0.0
O O 0.28020082567683563 -1.1460574477232603 0.40962532115236455 0.0
O O 0.10068833819726455 -1.1196048926799158 0.4872876722673197 0.0
O O -0.14909568972409096 -0.8380854002682753 0.26926147913027265 0.0
O O 0.3356663631952544 -0.8791151445753151 0.17855026438208615 0.0
N N 0.09632507187719017 -0.8629472240858267 0.23935958567797158 0.0
N N 0.23157344632028254 -0.988018260125396 0.39338048539306225 0.0
C C 0.14625361015405325 -1.153175547329517 0.43734938357060765 0.0
C C 0.030345440864181793 -1.2045164636742656 0.40455773958035357 0.0
C C -0.08872899137193573 -1.2150523789383774 0.4361874762370417 0.0
H H -0.12293899137193572 -1.1903223789383774 0.4734474762370417 0.0
C C 0.19809889488412685 -0.7664405726363969 0.08798117890634305 0.0
H H 0.29650889488412685 -0.7753105726363969 0.06824117890634307 0.0
C C 0.13630414946017183 -0.7972776289795305 0.14398196577648936 0.0
C C 0.010760974471001068 -0.7843639202049308 0.1683134009712358 0.0
C C 0.11146355045263477 -1.2364405399483154 0.35886922762347834 0.0
H H 0.21195355045263475 -1.2290105399483156 0.34012922762347836 0.0
C C 0.22674592562405796 -0.8550713870289112 0.18123966055450652 0.0
C C -0.02350616276278672 -0.8282035923010539 0.2334619007495476 0.0
C C 0.27495395920886956 -1.0034460180856417 0.33163904232199704 0.0
H H 0.33047395920886957 -1.0392160180856418 0.3214090423219971 0.0
C C 0.23135787587235584 -0.9689538914993127 0.27614316988323717 0.0
H H 0.2596678758723559 -0.9774238914993126 0.2290031698832372 0.0
C C 0.15050114028397193 -0.9185141401033626 0.28286019953350805 0.0
C C 0.09046873290344537 -0.9002384094864266 0.35062741374929896 0.0
H H 0.03048873290344537 -0.8658084094864267 0.362487413749299 0.0
C C 0.14346283175894398 -0.9389244390209158 0.41395385787105493 0.0
H H 0.11171283175894396 -0.9323044390209158 0.46103385787105494 0.0
