_cell_length_a 8.39304
_cell_length_b 22.23511
_cell_length_c 18.74218
_cell_angle_alpha 90.0
_cell_angle_beta 94.0312
_cell_angle_gamma 90.0
_symmetry_space_group_name_H-M         'P 1'
_symmetry_Int_Tables_number            1
loop_
_symmetry_equiv_pos_as_xyz
   'x, y, z'
                         
loop_
_atom_site_label
_atom_site_type_symbol
_atom_site_fract_x 
_atom_site_fract_y
_atom_site_fract_z
_atom_site_charge
Cd Cd 0.30838651740255724 0.5634085878981684 0.9906106424593232 0.0
O O 0.44997797235109593 0.4646303575330405 1.0537333153229753 0.0
O O 0.20797855264283605 0.5103675822877558 1.0805530750294603 0.0
O O 0.8977706029113985 0.7679318992279482 1.1521718802906091 0.0
O O 0.415112425190665 0.7650617914436986 1.262441013850803 0.0
N N 0.44467302746425363 0.6175563005114164 1.0610470663712097 0.0
N N 0.6419274616448137 0.7576773333109418 1.205137217521546 0.0
C C 0.3150530256898256 0.4648543236316283 1.0888861932573337 0.0
C C 0.272630738000586 0.41923273625702195 1.140491289961921 0.0
C C 0.1406671677727759 0.41845767779893456 1.1810427918924182 0.0
H H 0.06575716777277586 0.4493176777989346 1.1684027918924182 0.0
C C 0.08991235266620766 0.38667819258806746 1.233345832908055 0.0
H H -0.00899764733379237 0.38723819258806746 1.2550058329080551 0.0
C C 0.2073238444730832 0.3367896452506564 1.2452941750292539 0.0
C C 0.3567114786975371 0.33015724654898304 1.213162772462365 0.0
C C 0.38011153751083004 0.3695312210807425 1.164006644543677 0.0
H H 0.4777215375108302 0.3675012210807425 1.141476644543677 0.0
C C 0.5345392471043816 0.7851982897119769 1.2562657638216543 0.0
C C 0.7782393644969259 0.7833281886459271 1.2045227953508444 0.0
C C 0.5641141262535692 0.6691227614612137 1.0407935964624797 0.0
H H 0.5925241262535691 0.666392761461214 0.9926635964624799 0.0
C C 0.6079520520986058 0.7013645501274597 1.0905912401677524 0.0
H H 0.6787620520986059 0.7297345501274596 1.0720512401677524 0.0
C C 0.6004358989497391 0.7141388293606666 1.1560058329432839 0.0
C C 0.47276170955811053 0.67377489581579 1.1836673932091586 0.0
H H 0.4444517095581106 0.67394489581579 1.2318273932091588 0.0
C C 0.4068607542471978 0.6234682865649445 1.1349430156640077 0.0
H H 0.3333707542471978 0.5949382865649445 1.1513030156640076 0.0
O O 0.26447752848854467 0.6401861276094631 0.9018528645890506 0.0
O O 0.1007619034398432 0.6171461096040644 0.9814929611141712 0.0
O O -0.12874834986504774 0.3418772135648731 0.763993546945603 0.0
O O 0.34957222480836003 0.38317240693676524 0.6773179415007207 0.0
N N 0.1246116660131922 0.3633925296807314 0.7297405298155937 0.0
N N 0.23219071430181687 0.48998718811556247 0.9029948434409516 0.0
C C 0.15087930235136374 0.6575655390686389 0.9370929008854064 0.0
C C 0.031498372385216994 0.7045888267920595 0.9000050412466473 0.0
C C -0.11265919928434003 0.7259538539805934 0.9419816808377456 0.0
H H -0.14686919928434003 0.7012238539805935 0.9792416808377455 0.0
C C 0.19500463036939264 0.27158736012827756 0.5974048615816534 0.0
H H 0.29341463036939264 0.28045736012827754 0.5776648615816534 0.0
C C 0.15251719264990904 0.29484494625072943 0.6456593487801474 0.0
C C -0.0035866157040985026 0.29021480877981065 0.6760769599312555 0.0
C C 0.08724288613421122 0.736797655234681 0.858891570524372 0.0
H H 0.18773288613421127 0.729367655234681 0.8401515705243722 0.0
C C 0.20239746725098512 0.35845079364808613 0.6903797183368443 0.0
C C -0.03494552894954191 0.33009686190860976 0.7284213656738913 0.0
C C 0.2528052794233698 0.4965467777126822 0.8231637058522085 0.0
H H 0.3083252794233698 0.5323167777126824 0.8129337058522085 0.0
C C 0.23609726940805217 0.4701038663778476 0.7764307716200002 0.0
H H 0.2644072694080522 0.47857386637784755 0.7292907716200002 0.0
C C 0.1567354915116929 0.41758968103378985 0.7822591477206308 0.0
C C 0.10345177265140365 0.40942408893241933 0.8582205172497306 0.0
H H 0.043471772651403666 0.3749940889324193 0.8700805172497307 0.0
C C 0.14722179302019192 0.4457123267334657 0.8986344760970518 0.0
H H 0.11547179302019189 0.4390923267334657 0.9457144760970518 0.0
Cd Cd -0.3162018504713456 1.0490122800178339 -0.49109208150996614 0.0
O O -0.43774961260890854 0.9573203756614799 -0.5578462989005462 0.0
O O -0.19070974821028758 1.0078703525666786 -0.5813439635909775 0.0
O O -0.8801916024908525 1.2705182593487616 -0.659826149078075 0.0
O O -0.4006845140556257 1.2745341034631523 -0.7564360686619382 0.0
N N -0.4743879275228266 1.1151767142182458 -0.5668288555632925 0.0
N N -0.642497647873899 1.2525617912662264 -0.7074687261839128 0.0
C C -0.3164031101881042 0.9599335123714728 -0.5839410612400459 0.0
C C -0.25442527627181116 0.9273324600359544 -0.6453533214122594 0.0
C C -0.14891109358142726 0.9268705178346082 -0.6739566168225074 0.0
H H -0.07400109358142726 0.9577305178346084 -0.6613166168225074 0.0
C C -0.09596443366060954 0.8816969252458431 -0.7269226660935919 0.0
H H 0.0029455663393904825 0.8822569252458431 -0.7485826660935918 0.0
C C -0.20679238263880298 0.8311474547926198 -0.7537289613737719 0.0
C C -0.3684374075486365 0.8342759625978147 -0.7108424813369799 0.0
C C -0.40554564930126374 0.8688938520421152 -0.6639112658651996 0.0
H H -0.5031556493012639 0.8668638520421151 -0.6413812658651995 0.0
C C -0.5374097867331273 1.2843459936375732 -0.7500285337205306 0.0
C C -0.775053301530622 1.2818745589996008 -0.6996238964047244 0.0
C C -0.5477066482177979 1.1617697252139925 -0.5485857763009212 0.0
H H -0.576116648217798 1.1590397252139923 -0.5004557763009213 0.0
C C -0.6149332058928751 1.2049342811661667 -0.583734729905685 0.0
H H -0.6857432058928753 1.2333042811661667 -0.5651947299056849 0.0
C C -0.5632247580838898 1.2105451796478486 -0.6586561349389224 0.0
C C -0.4940852711900336 1.162267264944027 -0.6888099134434755 0.0
H H -0.4657752711900336 1.162437264944027 -0.7369699134434755 0.0
C C -0.43737404474666397 1.1225538205359684 -0.6251391844585178 0.0
H H -0.36388404474666397 1.0940238205359685 -0.641499184458518 0.0
O O -0.28391150381149644 1.1344870359963137 -0.4159474627296728 0.0
O O -0.10199846514236849 1.1191641994004575 -0.4897233839805795 0.0
O O 0.1247385271492214 0.836976686935684 -0.26317097262729505 0.0
O O -0.3411753291013254 0.8704357875170833 -0.1719734681385713 0.0
N N -0.12639365806775868 0.8695747459533675 -0.23105587814451511 0.0
N N -0.22069914232770557 0.999182412365723 -0.3929668190075178 0.0
C C -0.152803232358927 1.1520357529337646 -0.4448963298843401 0.0
C C -0.05691705625914046 1.206015580251914 -0.4138411575414097 0.0
C C 0.08208723824115244 1.213189454887154 -0.43389413490309536 0.0
H H 0.11629723824115243 1.188459454887154 -0.4711541349030953 0.0
C C -0.20138349929652147 0.7675897569042511 -0.0870549532816645 0.0
H H -0.29979349929652155 0.7764597569042512 -0.06731495328166452 0.0
C C -0.1201705912747457 0.8041285129972597 -0.14738354889326122 0.0
C C 0.021551357159028107 0.7909018146896939 -0.17741503491848545 0.0
C C -0.09664721897335843 1.242574585474199 -0.3628406900333283 0.0
H H -0.19713721897335842 1.2351445854741991 -0.3441006900333283 0.0
C C -0.21238703379747792 0.8491004808006302 -0.1792773312998622 0.0
C C 0.00989845823858143 0.8269876129160048 -0.23834186886720782 0.0
C C -0.27896227821737724 1.0068829163557635 -0.33600932135152883 0.0
H H -0.3344822782173772 1.0426529163557636 -0.3257793213515289 0.0
C C -0.21868912468433513 0.9668970760041982 -0.28164374677555043 0.0
H H -0.24699912468433513 0.9753670760041981 -0.23450374677555044 0.0
C C -0.13938937741411705 0.9072405102780516 -0.2861672504715161 0.0
C C -0.11476619496072357 0.8979880464154656 -0.3583855132597685 0.0
H H -0.05478619496072358 0.8635580464154656 -0.37024551325976846 0.0
C C -0.13473777220759403 0.950145094404154 -0.40945594081648523 0.0
H H -0.10298777220759402 0.9435250944041539 -0.4565359408164852 0.0
Cd Cd -0.29668323107033234 -0.5522054636173861 -0.979815349605208 0.0
O O -0.4386518526016904 -0.4643126609595803 -1.0482053109726095 0.0
O O -0.215108403410386 -0.49965654713928276 -1.0749567679828924 0.0
O O -0.8849988790319305 -0.7687636783841959 -1.1574049181602883 0.0
O O -0.4220938976102315 -0.7767858006467144 -1.2675643992439443 0.0
N N -0.46961619724268633 -0.6196749623435274 -1.0646996232144887 0.0
N N -0.6590286692033831 -0.7577146351437286 -1.199556131149897 0.0
C C -0.3079772516853649 -0.4645444738324159 -1.0989429893184697 0.0
C C -0.2622342439230022 -0.4187308607387806 -1.1485185803612474 0.0
C C -0.14652439827544808 -0.4192421060962256 -1.1718772591717224 0.0
H H -0.07161439827544805 -0.45010210609622564 -1.1592372591717224 0.0
C C -0.11248653731410835 -0.38415239713472416 -1.2387210511442706 0.0
H H -0.013576537314108343 -0.38471239713472416 -1.2603810511442706 0.0
C C -0.22928189314493486 -0.34365728920795513 -1.2547934825780849 0.0
C C -0.36994512177691524 -0.3362968277759407 -1.2095231652331206 0.0
C C -0.4054094578380982 -0.3713318562647822 -1.160774531874131 0.0
H H -0.5030194578380983 -0.36930185626478224 -1.138244531874131 0.0
C C -0.5416238086669585 -0.7854677335385317 -1.2541881366594874 0.0
C C -0.7824142938239677 -0.7891371510465769 -1.2049318801067714 0.0
C C -0.5708735895670398 -0.6684636420041933 -1.044489491102257 0.0
H H -0.5992835895670399 -0.6657336420041934 -0.9963594911022572 0.0
C C -0.626109266614139 -0.7120619475016817 -1.0877014526246709 0.0
H H -0.696919266614139 -0.7404319475016815 -1.0691614526246709 0.0
C C -0.5640814116812756 -0.7059966595842988 -1.1529163737102508 0.0
C C -0.4687926538124017 -0.6687256239104364 -1.170304362710861 0.0
H H -0.4404826538124017 -0.6688956239104364 -1.218464362710861 0.0
C C -0.4289230069157042 -0.6190406366826522 -1.136896299821823 0.0
H H -0.3554330069157042 -0.5905106366826522 -1.153256299821823 0.0
O O -0.2860453171775691 -0.6482918824762351 -0.9147801206803202 0.0
O O -0.09724211287861817 -0.6308410789711176 -0.9926193385704826 0.0
O O 0.15820458667299267 -0.3440210341524126 -0.7622969426045909 0.0
O O -0.3572892595910826 -0.3771526981847847 -0.6715261060377824 0.0
N N -0.12921249343911784 -0.3735259037578071 -0.7302375779742856 0.0
N N -0.21925420870943166 -0.4889373341789371 -0.8884031384158921 0.0
C C -0.15839344492202165 -0.6575111785577994 -0.943351238814194 0.0
C C -0.03766039699657825 -0.7044899795798951 -0.9153696485058147 0.0
C C 0.11307716964895853 -0.7231502882604067 -0.9456345804874589 0.0
H H 0.14728716964895855 -0.6984202882604068 -0.9828945804874587 0.0
C C -0.18034116469162045 -0.261691687061661 -0.5930450549676853 0.0
H H -0.2787511646916204 -0.270561687061661 -0.5733050549676854 0.0
C C -0.13644138717881324 -0.3029725539172144 -0.6519235729212216 0.0
C C 0.020178830714009745 -0.2919900114982007 -0.6782017351355686 0.0
C C -0.11853089308208627 -0.7433369892941184 -0.8526711197961729 0.0
H H -0.21902089308208628 -0.7359069892941185 -0.833931119796173 0.0
C C -0.2295225663782531 -0.35842312486127637 -0.6799475734869199 0.0
C C 0.010753178903317643 -0.33155261744258513 -0.7286168605952685 0.0
C C -0.26339428372058005 -0.5064707815726086 -0.824130613926613 0.0
H H -0.31891428372058006 -0.5422407815726087 -0.813900613926613 0.0
C C -0.2390564251123279 -0.46101099313327626 -0.7731363290258724 0.0
H H -0.26736642511232794 -0.46948099313327624 -0.7259963290258724 0.0
C C -0.1293217480064306 -0.41053264240191184 -0.7843980819064666 0.0
C C -0.07622709610614073 -0.3952420634385228 -0.8559297209410747 0.0
H H -0.016247096106140727 -0.3608120634385228 -0.8677897209410748 0.0
C C -0.14169481247678653 -0.44820532686376374 -0.9059901019396659 0.0
H H -0.10994481247678652 -0.4415853268637637 -0.9530701019396659 0.0
Cd Cd 0.3345722748873177 -1.0608647115224894 0.49048173491474545 0.0
O O 0.4482712416865375 -0.9652602575294574 0.553678278221461 0.0
O O 0.20209319039347656 -1.0059338979896597 0.5826406384590809 0.0
O O 0.8924664449628603 -1.2664188793512152 0.6554305010867858 0.0
O O 0.43580678745385876 -1.2678729189552789 0.7691171429916878 0.0
N N 0.44226226629973864 -1.1276503288501116 0.5573037521211702 0.0
N N 0.6394480959023452 -1.257188263234375 0.7059260169079964 0.0
C C 0.3141801425185272 -0.9629246810536338 0.5849664070071248 0.0
C C 0.26661521796495635 -0.9231024871464965 0.6431507003829454 0.0
C C 0.1438469131713273 -0.9214513989132722 0.6812921629199368 0.0
H H 0.0689369131713273 -0.9523113989132724 0.6686521629199368 0.0
C C 0.10825412792442168 -0.8835787326189358 0.7235568367238963 0.0
H H 0.00934412792442166 -0.8841387326189358 0.7452168367238963 0.0
C C 0.1977203279270604 -0.8332929183722916 0.7542326296260597 0.0
C C 0.3418069541200828 -0.8319329877180082 0.7117689401720128 0.0
C C 0.4021472514682291 -0.871466052258067 0.6644047181534606 0.0
H H 0.49975725146822925 -0.869436052258067 0.6418747181534606 0.0
C C 0.5639539135520292 -1.28063942398715 0.7475469956475292 0.0
C C 0.7947549012110776 -1.2895121887088716 0.6945102556694693 0.0
C C 0.5579022605545317 -1.1630891802914043 0.535026788988491 0.0
H H 0.5863122605545319 -1.1603591802914042 0.48689678898849115 0.0
C C 0.6038179844779702 -1.2151095831877998 0.5816501735106442 0.0
H H 0.6746279844779703 -1.2434795831877998 0.5631101735106441 0.0
C C 0.5887112788698761 -1.2106487494906273 0.6545079309760384 0.0
C C 0.493293747093586 -1.1718116810891859 0.6730459395315063 0.0
H H 0.4649837470935859 -1.1719816810891859 0.7212059395315061 0.0
C C 0.414066129533438 -1.1262532500565254 0.6284573245582652 0.0
H H 0.340576129533438 -1.0977232500565255 0.6448173245582653 0.0
O O 0.28886619685162307 -1.1418630804547398 0.4032063011234989 0.0
O O 0.10282477981150508 -1.1295495885937359 0.4814733751367449 0.0
O O -0.1430715444064509 -0.8392610396534738 0.27172430806396325 0.0
O O 0.3505177582959646 -0.8796480663223898 0.1824452252952874 0.0
N N 0.11000658165669917 -0.8649136023942643 0.227265573667318 0.0
N N 0.23056848849866177 -0.9947733644163459 0.3945375156073675 0.0
C C 0.1488465843942081 -1.1556958148510665 0.4377803411443766 0.0
C C 0.04933851414216047 -1.2081249604975204 0.40792793453707776 0.0
C C -0.10661398389201313 -1.2157594643447314 0.431592592712882 0.0
H H -0.14082398389201312 -1.1910294643447314 0.46885259271288193 0.0
C C 0.2069923492041576 -0.7666929836072299 0.08924292565545049 0.0
H H 0.30540234920415765 -0.77556298360723 0.0695029256554505 0.0
C C 0.15235405012660552 -0.796418440687453 0.15225397916969105 0.0
C C -0.00023949581939755005 -0.781228833748308 0.17649412722007762 0.0
C C 0.10577423411732825 -1.2413908072987554 0.36312177301521054 0.0
H H 0.20626423411732825 -1.2339608072987556 0.34438177301521056 0.0
C C 0.2196900946663105 -0.8445578156125229 0.19226596287787326 0.0
C C -0.023487600472439744 -0.8258949006895947 0.22999433779165154 0.0
C C 0.2592999322819681 -1.0061464938448514 0.32021260575208577 0.0
H H 0.31481993228196814 -1.0419164938448515 0.30998260575208586 0.0
C C 0.21076816403413687 -0.9672133704068026 0.2686665614361607 0.0
H H 0.2390781640341369 -0.9756833704068025 0.2215265614361607 0.0
C C 0.16010114095426456 -0.90698670158683 0.2942110745810347 0.0
C C 0.07721585020993878 -0.9053469386801599 0.3507317113151391 0.0
H H 0.017235850209938782 -0.8709169386801601 0.36259171131513906 0.0
C C 0.12647271588501063 -0.9472698496984581 0.4033548093277605 0.0
H H 0.09472271588501062 -0.940649849698458 0.4504348093277604 0.0
