_cell_length_a 13.6316
_cell_length_b 13.6316
_cell_length_c 7.968
_cell_angle_alpha 90.0
_cell_angle_beta 90.0
_cell_angle_gamma 90.0
_symmetry_space_group_name_H-M         'P 1'
_symmetry_Int_Tables_number            1
loop_
_symmetry_equiv_pos_as_xyz
   'x, y, z'
                         
loop_
_atom_site_label
_atom_site_type_symbol
_atom_site_fract_x 
_atom_site_fract_y
_atom_site_fract_z
_atom_site_charge
C C 0.534149528391822 0.7131234090125883 0.15356021927712857 0.0
C C 0.5205270014349939 0.7916182675154696 0.20151584368168832 0.0
C C 0.45734369432915223 0.27837031401526297 0.13429730850034752 0.0
C C 0.4817718848192255 0.18220415301275036 0.07419570645335749 0.0
C C 0.27493574838874196 0.5311568730525764 0.18395310423195105 0.0
C C 0.28516863241616 0.5262616259129039 0.16646562364005907 0.0
C C 0.7002867118173889 0.4192639640464159 0.185131416747055 0.0
C C 0.7950352222066063 0.442534667335857 0.2544125669124829 0.0
C C 0.49289710219938937 0.6648842695597833 0.8803460280487182 0.0
C C 0.536002215783608 0.8079577701476954 0.8355431935147156 0.0
C C 0.4853727044508839 0.3211906119360658 0.8984261795572741 0.0
C C 0.5707645305180933 0.20861991517350487 0.8090217573266261 0.0
C C 0.6375026586887017 0.5181133796424744 0.8929235988883023 0.0
C C 0.7831818803275609 0.5418191849120615 0.8584856386860485 0.0
C C 0.2513068352606857 0.4965030998094748 0.8840279989393235 0.0
C C 0.16388050231520374 0.485263016169928 0.8035741055296278 0.0
C C 0.5089697778571239 0.16220368884534275 -0.006173203786301226 0.0
C C 0.5044591963812289 0.04778308983488653 -0.021941550455907618 0.0
C C 0.5381383057678649 0.8342415499650077 -0.09533223331039505 0.0
C C 0.5179801653385118 0.9592442487740304 -0.01276906107666708 0.0
C C 0.9348831587706385 0.5541469137514757 -0.03893014194057996 0.0
C C 1.0032801102548332 0.5175514689286556 -0.06421293504425937 0.0
C C 0.10997014046927918 0.46791733564276106 0.08367477160703943 0.0
C C 0.027392759808517894 0.49107540054234433 -0.05581945824352978 0.0
H H 0.5576775283918219 0.6699134090125884 0.26152321927712857 0.0
H H 0.5463170014349938 0.8294582675154696 0.3134138436816883 0.0
H H 0.43381569432915223 0.321580314015263 0.2422603085003475 0.0
H H 0.45598188481922547 0.14436515301275038 0.18609370645335746 0.0
H H 0.31814574838874204 0.5546848730525764 0.291916104231951 0.0
H H 0.24732963241616002 0.5520516259129039 0.278363623640059 0.0
H H 0.6570767118173889 0.3957359640464159 0.293094416747055 0.0
H H 0.8328752222066063 0.41674466733585697 0.3663105669124828 0.0
H H 0.46936910219938943 0.6216742695597833 0.7723830280487181 0.0
H H 0.510212215783608 0.8457977701476954 0.7236451935147156 0.0
H H 0.508900704450884 0.3644006119360658 0.790463179557274 0.0
H H 0.5965545305180934 0.17078091517350485 0.697123757326626 0.0
H H 0.5942926586887017 0.5416413796424744 0.7849605988883022 0.0
H H 0.8210218803275608 0.5676091849120615 0.7465876386860485 0.0
H H 0.29451683526068567 0.47297509980947483 0.7760649989393235 0.0
H H 0.12604150231520372 0.45947301616992803 0.6916761055296278 0.0
Cu Cu 0.49949523856652966 0.5095438588329809 -0.014953528030501451 0.0
Si Si 0.48278173726283674 0.46979196470393836 0.4444212367148494 0.0
F F 0.4982214977984795 0.5274841263556768 0.658879539998963 0.0
F F 0.5064713438099047 0.5192952645648555 0.22495513480471588 0.0
F F 0.5549162932897327 0.5902603990220688 0.4761362280884451 0.0
F F 0.39046836447246086 0.5835866589922786 0.4896149374636239 0.0
F F 0.40495545309787434 0.4208714935850204 0.48088421639328593 0.0
F F 0.6121168342757547 0.41385204333982906 0.4697735298269859 0.0
N N 0.5037812516281555 0.3693391331174613 -0.05073880974319199 0.0
N N 0.513739112893073 0.6403026884062571 -0.0002422593132348071 0.0
N N 0.6204032626933403 0.5157023513138306 0.03730471321669001 0.0
N N 0.35434719124370545 0.48527219304494473 0.04476154305444696 0.0
