_cell_length_a 13.6316
_cell_length_b 13.6316
_cell_length_c 7.968
_cell_angle_alpha 90.0
_cell_angle_beta 90.0
_cell_angle_gamma 90.0
_symmetry_space_group_name_H-M         'P 1'
_symmetry_Int_Tables_number            1
loop_
_symmetry_equiv_pos_as_xyz
   'x, y, z'
                         
loop_
_atom_site_label
_atom_site_type_symbol
_atom_site_fract_x 
_atom_site_fract_y
_atom_site_fract_z
_atom_site_charge
C C 0.48732505690305344 0.6819224980644465 0.11564041075126241 0.0
C C 0.4964807193993457 0.7849118266707531 0.07525425697909102 0.0
C C 0.4133307566649105 0.2766877328526541 0.14984555092973498 0.0
C C 0.48910657301775506 0.17662839793979193 0.22751272866114644 0.0
C C 0.3251379918204025 0.4691966239011457 0.15001218447189557 0.0
C C 0.14667237981854941 0.5615322761469702 0.13732135589960137 0.0
C C 0.6608270365578468 0.4451785366365055 0.1578439316100062 0.0
C C 0.8263071161907695 0.4799379188059177 0.16924380325525576 0.0
C C 0.4685598703827914 0.6794878660869216 0.9220961777512212 0.0
C C 0.4914522490427381 0.8459955208782239 0.8292815820615771 0.0
C C 0.5213168036300079 0.3099147680170459 0.9077331688798134 0.0
C C 0.5840773355842612 0.18326778161211318 0.8665113993582922 0.0
C C 0.7066585267003169 0.5162320929740147 0.8985142587063201 0.0
C C 0.792148039443441 0.5572366137450366 0.9203109288860172 0.0
C C 0.3048890251521655 0.44375532297044756 0.8763949688288017 0.0
C C 0.1937345222390232 0.4751217997787384 0.8849233732780845 0.0
C C 0.5624499299880397 0.1471446831747518 0.01046508079973482 0.0
C C 0.5093325968599627 0.06333442836378643 0.0010417340597031666 0.0
C C 0.49539826319280694 0.8473556261471193 -0.04502935350251118 0.0
C C 0.4799675241393069 0.9341820790495047 0.015132542189076269 0.0
C C 0.872814500056221 0.49300655047410824 0.13034232094342188 0.0
C C 0.9542295378755665 0.536004022569454 -0.0015135575796398231 0.0
C C 0.13770071054802596 0.5228692305563968 0.0754005650092834 0.0
C C 0.035672767315427935 0.5078629981129623 0.009705390494896458 0.0
H H 0.5108530569030535 0.6387124980644465 0.22360341075126236 0.0
H H 0.5222707193993457 0.8227518266707531 0.18715225697909102 0.0
H H 0.3898027566649105 0.3198977328526541 0.257808550929735 0.0
H H 0.46331657301775503 0.13878939793979195 0.3394107286611464 0.0
H H 0.36834799182040256 0.4927246239011457 0.2579751844718956 0.0
H H 0.10883337981854939 0.5873222761469701 0.24921935589960134 0.0
H H 0.6176170365578468 0.42165053663650554 0.2658069316100062 0.0
H H 0.8641471161907694 0.45414791880591765 0.2811418032552557 0.0
H H 0.4450318703827914 0.6362778660869216 0.8141331777512211 0.0
H H 0.4656622490427381 0.8838355208782239 0.717383582061577 0.0
H H 0.5448448036300079 0.35312476801704595 0.7997701688798133 0.0
H H 0.6098673355842612 0.1454287816121132 0.7546133993582922 0.0
H H 0.663448526700317 0.5397600929740147 0.79055125870632 0.0
H H 0.829988039443441 0.5830266137450366 0.8084129288860171 0.0
H H 0.34809902515216556 0.4202273229704476 0.7684319688288016 0.0
H H 0.15589552223902323 0.44933179977873844 0.7730253732780844 0.0
Cu Cu 0.49643638996219525 0.5156210314251947 -0.012714726869618737 0.0
Si Si 0.5155523823010796 0.5386944059983401 0.5007111336111986 0.0
F F 0.472908502046719 0.5025939419558777 0.8394834783174373 0.0
F F 0.5096835854806846 0.49875492878700906 0.34028496416544773 0.0
F F 0.5741048896307654 0.5904939602780922 0.48225654247023997 0.0
F F 0.42080356940665453 0.6179791201737987 0.5048224122286435 0.0
F F 0.42223589669387257 0.4246767956616798 0.40972640775920804 0.0
F F 0.6137561356190921 0.41105676461737134 0.45331914341230645 0.0
N N 0.4609179518009199 0.3656436777466413 -0.048957163594234 0.0
N N 0.4779282961095556 0.6664420138164884 -0.02657690126528862 0.0
N N 0.5988729289478312 0.4853494621069205 0.021836941122221152 0.0
N N 0.32879981214415815 0.44618651789307745 -0.04745558854276722 0.0
