_cell_length_a 13.6316
_cell_length_b 13.6316
_cell_length_c 7.968
_cell_angle_alpha 90.0
_cell_angle_beta 90.0
_cell_angle_gamma 90.0
_symmetry_space_group_name_H-M         'P 1'
_symmetry_Int_Tables_number            1
loop_
_symmetry_equiv_pos_as_xyz
   'x, y, z'
                         
loop_
_atom_site_label
_atom_site_type_symbol
_atom_site_fract_x 
_atom_site_fract_y
_atom_site_fract_z
_atom_site_charge
C C 0.4892227682277631 0.6668897088500446 0.08795240859899073 0.0
C C 0.5275781736985595 0.8315817815357892 0.1554479319574499 0.0
C C 0.4709216334120486 0.23802473660028708 0.31285748275233993 0.0
C C 0.401552621812182 0.22111149754853981 0.11164482608319898 0.0
C C 0.3120520730476979 0.4943016429741637 0.07549558940349371 0.0
C C 0.1759482035571888 0.533022248831899 0.1459288150430268 0.0
C C 0.6727872459837932 0.43813203371343257 0.11515353414624149 0.0
C C 0.7969998842031717 0.44191239016460376 0.06028640692853478 0.0
C C 0.4814488516443614 0.6919528849890837 0.8689830199862204 0.0
C C 0.46399312471438503 0.7723872576925006 0.9590217617691923 0.0
C C 0.5514744512054511 0.31582857106416495 0.8675423341289833 0.0
C C 0.5589712910332669 0.22388845369078406 0.7522442181738624 0.0
C C 0.6907520956047186 0.5393587361051557 0.8586294893317508 0.0
C C 0.8361636809830334 0.5678519230421517 0.8223133060554679 0.0
C C 0.29435962323147674 0.4997085390333371 0.9566237407263635 0.0
C C 0.20816015460108633 0.4746362365583217 0.8495734792347004 0.0
C C 0.512461660616983 0.16737920346975171 0.030746251639565684 0.0
C C 0.5158291154237555 0.05685494593165513 0.04900726055767001 0.0
C C 0.5401917252801154 0.8814819772130263 0.07241750723568094 0.0
C C 0.4625328289642591 0.9679904598661082 0.019771654598772385 0.0
C C 0.8287073554388117 0.5401964011421705 -0.06503436919584932 0.0
C C 0.9650458757171584 0.4910592409215365 -0.035431507323247444 0.0
C C 0.15326026565487996 0.47486811320498046 0.015474493173376375 0.0
C C 0.08729874945192694 0.4920646806712058 0.0012457849430367364 0.0
H H 0.5127507682277631 0.6236797088500446 0.1959154085989907 0.0
H H 0.5533681736985595 0.8694217815357892 0.2673459319574499 0.0
H H 0.44739363341204863 0.2812347366002871 0.4208204827523399 0.0
H H 0.37576262181218195 0.18327249754853983 0.22354282608319895 0.0
H H 0.35526207304769797 0.5178296429741637 0.1834585894034937 0.0
H H 0.13810920355718878 0.558812248831899 0.2578268150430268 0.0
H H 0.6295772459837933 0.4146040337134326 0.22311653414624147 0.0
H H 0.8348398842031717 0.41612239016460373 0.17218440692853476 0.0
H H 0.4579208516443615 0.6487428849890837 0.7610200199862204 0.0
H H 0.438203124714385 0.8102272576925006 0.8471237617691922 0.0
H H 0.5750024512054511 0.35903857106416504 0.7595793341289832 0.0
H H 0.5847612910332669 0.18604945369078407 0.6403462181738624 0.0
H H 0.6475420956047186 0.5628867361051557 0.7506664893317506 0.0
H H 0.8740036809830334 0.5936419230421517 0.7104153060554679 0.0
H H 0.33756962323147677 0.4761805390333371 0.8486607407263633 0.0
H H 0.17032115460108635 0.44884623655832173 0.7376754792347003 0.0
Cu Cu 0.4727764751073613 0.491437776361971 0.012238226438626973 0.0
Si Si 0.4794054580981907 0.4778420880021864 0.48426335448447216 0.0
F F 0.5076798946786223 0.477522235027493 0.7238909000281248 0.0
F F 0.48890830375193833 0.46278015265104744 0.321375756710588 0.0
F F 0.5651119989795723 0.6093232735929489 0.4504999259024653 0.0
F F 0.44745892434924284 0.56075890917741 0.4857387958469416 0.0
F F 0.3653362349690353 0.3695667723759164 0.4770366339631293 0.0
F F 0.5928253284798626 0.42388101642674336 0.49316535215292906 0.0
N N 0.48254160569766014 0.375119549423535 -0.0335082666325981 0.0
N N 0.502870108507465 0.6783669306105371 -0.06658180434239519 0.0
N N 0.5897534545817285 0.4816247301009869 0.04152325616492491 0.0
N N 0.3400961838610733 0.5200683306091917 -0.01573772803001044 0.0
