_cell_length_a 13.6316
_cell_length_b 13.6316
_cell_length_c 7.968
_cell_angle_alpha 90.0
_cell_angle_beta 90.0
_cell_angle_gamma 90.0
_symmetry_space_group_name_H-M         'P 1'
_symmetry_Int_Tables_number            1
loop_
_symmetry_equiv_pos_as_xyz
   'x, y, z'
                         
loop_
_atom_site_label
_atom_site_type_symbol
_atom_site_fract_x 
_atom_site_fract_y
_atom_site_fract_z
_atom_site_charge
C C 0.5119349671799189 0.6788263236023044 0.19396911130871253 0.0
C C 0.49402009365710303 0.790919331347515 0.10018131449177015 0.0
C C 0.4608899353883266 0.2612807389587067 0.002591692200890758 0.0
C C 0.44377311695626925 0.20604436364644374 0.23876549622017168 0.0
C C 0.24576828752710975 0.514378987972232 0.15559844744375806 0.0
C C 0.19706477566701405 0.5227883605472358 0.22493560291101872 0.0
C C 0.690023095088465 0.5045587058595546 0.15622053618561402 0.0
C C 0.7725382593239897 0.4570631934494638 0.17675117593384007 0.0
C C 0.4795778165067757 0.6788281645850001 0.8815606393669233 0.0
C C 0.4621986475884891 0.7498700055713505 0.7862347461340212 0.0
C C 0.518782843127878 0.3583500537789922 0.8627039842422755 0.0
C C 0.50177905469261 0.157453611690733 0.978414766696087 0.0
C C 0.7079320399127371 0.49081186337599886 0.8155132553983839 0.0
C C 0.8388983130558587 0.4921378083346148 0.952152539015437 0.0
C C 0.2860508750427746 0.48053624609009155 0.8234312743776664 0.0
C C 0.26912137565797717 0.38827724321193025 0.8929194126239884 0.0
C C 0.5258666526098221 0.10293107046011624 -0.07147386746624244 0.0
C C 0.4863325090471573 0.06223626121746316 0.016710730813880328 0.0
C C 0.501486543259493 0.8701651577946232 0.03443219841116862 0.0
C C 0.5185004263634057 0.9240138127843067 0.09540254219987654 0.0
C C 0.9059523349651579 0.5122517625960782 -0.04164705986780306 0.0
C C 0.9510959273032904 0.48881981877152125 0.03378496291938793 0.0
C C 0.13870622831106832 0.5101546524039559 0.039465494046905 0.0
C C 0.1222859982310643 0.4624424475779191 0.00828948257759411 0.0
H H 0.5354629671799189 0.6356163236023045 0.3019321113087125 0.0
H H 0.5198100936571031 0.828759331347515 0.21207931449177012 0.0
H H 0.43736193538832663 0.3044907389587067 0.11055469220089073 0.0
H H 0.4179831169562692 0.16820536364644373 0.3506634962201716 0.0
H H 0.2889782875271098 0.537906987972232 0.263561447443758 0.0
H H 0.15922577566701404 0.5485783605472357 0.33683360291101866 0.0
H H 0.6468130950884651 0.4810307058595547 0.26418353618561397 0.0
H H 0.8103782593239897 0.43127319344946374 0.28864917593384004 0.0
H H 0.4560498165067758 0.6356181645850001 0.7735976393669233 0.0
H H 0.43640864758848913 0.7877100055713505 0.6743367461340212 0.0
H H 0.542310843127878 0.4015600537789923 0.7547409842422753 0.0
H H 0.52756905469261 0.11961461169073298 0.8665167666960869 0.0
H H 0.6647220399127372 0.5143398633759989 0.7075502553983839 0.0
H H 0.8767383130558587 0.5179278083346148 0.8402545390154369 0.0
H H 0.3292608750427746 0.45700824609009166 0.7154682743776664 0.0
H H 0.23128237565797716 0.3624872432119302 0.7810214126239884 0.0
Cu Cu 0.47857324575589916 0.5296928741106603 0.05327181660873035 0.0
Si Si 0.470029950927585 0.5033475549685109 0.6061704026342819 0.0
F F 0.5660101465361055 0.4899576038701188 0.6807966003004883 0.0
F F 0.5435659072678177 0.5824259792352241 0.2979030732943082 0.0
F F 0.6179350171235415 0.6096713244159728 0.48552168835628245 0.0
F F 0.4201530795301818 0.6181512855797251 0.5208260916217912 0.0
F F 0.4205501608277862 0.38976923265981905 0.3854188601668176 0.0
F F 0.5429533727253564 0.4246243024837348 0.5495095684473007 0.0
N N 0.5230111139774303 0.34597649681672116 -0.04061533229589511 0.0
N N 0.49300949904716695 0.6049780136910766 -0.005723255045019743 0.0
N N 0.675877991584319 0.5072258322460182 -0.04694921857841634 0.0
N N 0.3742606310119332 0.46742078665531644 0.033954080872561895 0.0
