_cell_length_a 13.6316
_cell_length_b 13.6316
_cell_length_c 7.968
_cell_angle_alpha 90.0
_cell_angle_beta 90.0
_cell_angle_gamma 90.0
_symmetry_space_group_name_H-M         'P 1'
_symmetry_Int_Tables_number            1
loop_
_symmetry_equiv_pos_as_xyz
   'x, y, z'
                         
loop_
_atom_site_label
_atom_site_type_symbol
_atom_site_fract_x 
_atom_site_fract_y
_atom_site_fract_z
_atom_site_charge
C C 0.5571820263475881 0.7376283263085398 0.16802921889288921 0.0
C C 0.552566605858162 0.7960936566562428 0.16581844443344967 0.0
C C 0.48378090420230996 0.30235769789753375 0.11326234693856815 0.0
C C 0.4879541122191573 0.22214216702061565 0.1335514211284245 0.0
C C 0.3271586524347515 0.5561206222914411 0.13913203468143465 0.0
C C 0.2122783580840633 0.5109933881360315 0.1812530251926671 0.0
C C 0.7210368855054686 0.46047962981132506 0.18143974089125453 0.0
C C 0.8535980413298129 0.4813976595880267 0.1274031240069773 0.0
C C 0.4727180591347896 0.6948160390554903 0.8833140999571822 0.0
C C 0.41713473665789547 0.8035194149493785 0.8447014432445739 0.0
C C 0.4999914228640844 0.29777261636303975 0.8849337238539783 0.0
C C 0.5200319967623714 0.22726216169340302 0.8120752454789452 0.0
C C 0.7076230148249323 0.5544200499738525 0.8970718629118165 0.0
C C 0.8321947471965541 0.5351001943178957 0.8461256163887462 0.0
C C 0.30886531635094044 0.4980333768848231 0.8772568152248944 0.0
C C 0.20218907865029578 0.48570894461792435 0.8386834209790572 0.0
C C 0.4753062939885463 0.15724973343156384 0.016790760525945737 0.0
C C 0.4846288416368767 0.06393301064890507 -0.04567692829934656 0.0
C C 0.4899340424596616 0.8419340510000362 -0.03186650010537835 0.0
C C 0.4799001004751661 0.9615368190234662 0.11590352344726348 0.0
C C 0.8810913996043119 0.48338792215948145 -0.008163511037545592 0.0
C C 0.915585278068848 0.46929980848706265 -0.04738703688525275 0.0
C C 0.198642296889207 0.4655880825768708 -0.02709564695679344 0.0
C C -0.05274170630907794 0.5100320120343478 -0.1039506967991459 0.0
H H 0.5807100263475881 0.6944183263085398 0.2759922188928892 0.0
H H 0.578356605858162 0.8339336566562427 0.27771644443344967 0.0
H H 0.46025290420230996 0.3455676978975338 0.22122534693856813 0.0
H H 0.46216411221915726 0.18430316702061564 0.24544942112842447 0.0
H H 0.3703686524347516 0.5796486222914411 0.24709503468143462 0.0
H H 0.17443935808406333 0.5367833881360314 0.29315102519266706 0.0
H H 0.6778268855054687 0.43695162981132507 0.2894027408912545 0.0
H H 0.8914380413298129 0.4556076595880267 0.23930112400697728 0.0
H H 0.44919005913478965 0.6516060390554903 0.7753510999571821 0.0
H H 0.3913447366578955 0.8413594149493785 0.7328034432445738 0.0
H H 0.5235194228640844 0.3409826163630398 0.7769707238539783 0.0
H H 0.5458219967623714 0.189423161693403 0.7001772454789451 0.0
H H 0.6644130148249323 0.5779480499738525 0.7891088629118165 0.0
H H 0.870034747196554 0.5608901943178957 0.7342276163887461 0.0
H H 0.3520753163509405 0.47450537688482314 0.7692938152248943 0.0
H H 0.16435007865029577 0.4599189446179244 0.7267854209790572 0.0
Cu Cu 0.505943245190505 0.5322375143526628 -0.02992631927110617 0.0
Si Si 0.4693665836796669 0.5312439498135453 0.5327786093476765 0.0
F F 0.5116928171294141 0.5344709497990148 0.721775181027453 0.0
F F 0.5119265595257226 0.4899678138911215 0.22639754765415107 0.0
F F 0.6381272634187315 0.5330586517057887 0.5177547703096517 0.0
F F 0.43937844220165423 0.5542021474457892 0.5951493718371342 0.0
F F 0.4212707174755855 0.35460001249127276 0.4782670763183753 0.0
F F 0.601889635771529 0.4203928551490133 0.42220580954383286 0.0
N N 0.5303757871584729 0.35084361408497655 0.08154303240695056 0.0
N N 0.4985709179125113 0.6655903843755597 -0.003388962942159103 0.0
N N 0.684850276698969 0.5047819492762843 -0.06971597654600044 0.0
N N 0.32951792710360195 0.5018017303380804 0.03712135061386418 0.0
