_cell_length_a 13.6316
_cell_length_b 13.6316
_cell_length_c 7.968
_cell_angle_alpha 90.0
_cell_angle_beta 90.0
_cell_angle_gamma 90.0
_symmetry_space_group_name_H-M         'P 1'
_symmetry_Int_Tables_number            1
loop_
_symmetry_equiv_pos_as_xyz
   'x, y, z'
                         
loop_
_atom_site_label
_atom_site_type_symbol
_atom_site_fract_x 
_atom_site_fract_y
_atom_site_fract_z
_atom_site_charge
C C 0.472840360286636 0.7066135218224011 0.06309873734740044 0.0
C C 0.5213959370641864 0.777528728220782 0.20540195784867585 0.0
C C 0.4330941244650439 0.29307665678358463 0.11093506248911454 0.0
C C 0.4442864239908301 0.20421688779417488 0.27280506894363454 0.0
C C 0.30577595685912473 0.48826592960144816 0.07760276635241863 0.0
C C 0.14261662022153104 0.5998604184906517 0.1256700310011633 0.0
C C 0.7274762393943423 0.5019865971841981 0.14826265210204456 0.0
C C 0.7745370816747239 0.4701039341790716 0.24307318891946955 0.0
C C 0.47832950440485034 0.6777071379095693 0.7989176161510297 0.0
C C 0.5046245919031652 0.8119659048323006 0.7392334486709201 0.0
C C 0.532992515195615 0.25601996765525487 0.872423417103529 0.0
C C 0.452755188522693 0.18503321311585008 0.7954417545040243 0.0
C C 0.6711446741364042 0.5196719097942464 0.9521359773894243 0.0
C C 0.8302170228995864 0.5335872169187587 0.878072198114938 0.0
C C 0.3613103175182784 0.47678854714163493 0.7908307580918154 0.0
C C 0.22937759771574315 0.45141140726072293 0.7717184405204468 0.0
C C 0.5027620379263154 0.10826715720560061 0.15061282507265092 0.0
C C 0.5397370392250156 0.03973231010039259 0.10880890506228973 0.0
C C 0.5135936124705808 0.8470599660820723 -0.056449030301228574 0.0
C C 0.4856848119909489 0.9589938557870248 0.01148363963107837 0.0
C C 0.8536089066549635 0.5228435252307752 -0.06874838075639411 0.0
C C 0.9849039400508024 0.4732578782584163 -0.013032364246110791 0.0
C C 0.15477080850980932 0.4645969416529898 -0.02760153954747159 0.0
C C 0.06648702192926229 0.48895240013136976 0.12709569034230522 0.0
H H 0.49636836028663595 0.6634035218224011 0.17106173734740043 0.0
H H 0.5471859370641864 0.815368728220782 0.3172999578486758 0.0
H H 0.4095661244650439 0.33628665678358466 0.2188980624891145 0.0
H H 0.4184964239908301 0.1663778877941749 0.3847030689436345 0.0
H H 0.3489859568591248 0.5117939296014482 0.1855657663524186 0.0
H H 0.10477762022153102 0.6256504184906518 0.23756803100116328 0.0
H H 0.6842662393943423 0.47845859718419814 0.25622565210204457 0.0
H H 0.8123770816747239 0.44431393417907156 0.3549711889194695 0.0
H H 0.4548015044048504 0.6344971379095693 0.6909546161510297 0.0
H H 0.47883459190316513 0.8498059048323006 0.6273354486709201 0.0
H H 0.556520515195615 0.29922996765525495 0.764460417103529 0.0
H H 0.478545188522693 0.14719421311585007 0.6835437545040243 0.0
H H 0.6279346741364044 0.5431999097942464 0.8441729773894242 0.0
H H 0.8680570228995864 0.5593772169187586 0.7661741981149379 0.0
H H 0.40452031751827855 0.453260547141635 0.6828677580918152 0.0
H H 0.19153859771574314 0.4256214072607229 0.6598204405204467 0.0
Cu Cu 0.4462245560089723 0.5187350682508679 -0.03888008531286434 0.0
Si Si 0.46835948386893334 0.5185184087662746 0.4782437714645283 0.0
F F 0.5201804431618069 0.4680309517401533 0.721813697570297 0.0
F F 0.523975060728944 0.5118393633416769 0.2661353114816676 0.0
F F 0.6292023897943313 0.591318870922216 0.5137124484827329 0.0
F F 0.389073482867999 0.5787452277936411 0.54043249949688 0.0
F F 0.3986007176953009 0.3825764262780926 0.4471687206911288 0.0
F F 0.5877409015545637 0.3655488658239551 0.5137498080548518 0.0
N N 0.48440026902049466 0.3558813826536058 0.08089808610367324 0.0
N N 0.4685487484380885 0.6271549487243926 0.08230725517702428 0.0
N N 0.6452184781704167 0.5052327283018725 0.03563326459186918 0.0
N N 0.33403929926868126 0.5297238694253774 0.00460213230865227 0.0
