_cell_length_a 13.6316
_cell_length_b 13.6316
_cell_length_c 7.968
_cell_angle_alpha 90.0
_cell_angle_beta 90.0
_cell_angle_gamma 90.0
_symmetry_space_group_name_H-M         'P 1'
_symmetry_Int_Tables_number            1
loop_
_symmetry_equiv_pos_as_xyz
   'x, y, z'
                         
loop_
_atom_site_label
_atom_site_type_symbol
_atom_site_fract_x 
_atom_site_fract_y
_atom_site_fract_z
_atom_site_charge
C C 0.5331473093851534 0.7143660557172603 0.15287686694011957 0.0
C C 0.5694969442552801 0.7741010974353583 0.1266096822298069 0.0
C C 0.43860466310823926 0.3130835670697136 0.1633722237185649 0.0
C C 0.4821498463476355 0.16402558883751578 0.21002492694003588 0.0
C C 0.29456417557900033 0.5237317837729747 0.11305854101834237 0.0
C C 0.21183533646098654 0.5471080308048938 0.06596667382509368 0.0
C C 0.69582420732197 0.4298527712158457 0.12954881070533883 0.0
C C 0.7326655832846062 0.4183994672355371 0.09443471929797898 0.0
C C 0.46445048866312777 0.7147617522681589 0.9083961285843661 0.0
C C 0.5075945400292606 0.7953285489334009 0.8195147793066017 0.0
C C 0.5381178612352252 0.2921975523148411 0.8733427939474699 0.0
C C 0.5348448366527343 0.18302659572854194 0.883032273092917 0.0
C C 0.6816216526053674 0.4843980249644022 0.8858732824173362 0.0
C C 0.7970557695115574 0.5221039333080034 0.9239912370813325 0.0
C C 0.26259409072059603 0.47044777966572043 0.8577166614275495 0.0
C C 0.20711029660668903 0.4133892598061517 0.9018555833741403 0.0
C C 0.47432269575521385 0.1984241105122504 -0.026981417776802005 0.0
C C 0.570011115526315 0.009892170067927222 -0.022070589548377647 0.0
C C 0.48276708314401473 0.8075118497627676 -0.021196576560260565 0.0
C C 0.4723986646345814 1.0030803559882426 -0.012362333251950278 0.0
C C 0.8328137841041255 0.4947954670165355 0.01570023243936792 0.0
C C 0.9727584475598572 0.4802921133671807 0.11409126372077304 0.0
C C 0.14010016960451732 0.4615274682521616 0.012224874417212386 0.0
C C 0.0776749231968674 0.4450190516935535 -0.02530272244535658 0.0
H H 0.5566753093851534 0.6711560557172603 0.26083986694011957 0.0
H H 0.5952869442552802 0.8119410974353582 0.2385076822298069 0.0
H H 0.41507666310823926 0.3562935670697136 0.2713352237185649 0.0
H H 0.4563598463476355 0.1261865888375158 0.3219229269400359 0.0
H H 0.3377741755790004 0.5472597837729747 0.22102154101834232 0.0
H H 0.17399633646098656 0.5728980308048937 0.17786467382509363 0.0
H H 0.6526142073219701 0.4063247712158457 0.23751181070533878 0.0
H H 0.7705055832846062 0.3926094672355371 0.20633271929797894 0.0
H H 0.4409224886631278 0.6715517522681589 0.8004331285843661 0.0
H H 0.4818045400292605 0.8331685489334009 0.7076167793066016 0.0
H H 0.5616458612352252 0.3354075523148412 0.7653797939474698 0.0
H H 0.5606348366527343 0.14518759572854192 0.7711342730929169 0.0
H H 0.6384116526053675 0.5079260249644023 0.7779102824173361 0.0
H H 0.8348957695115574 0.5478939333080034 0.8120932370813324 0.0
H H 0.30580409072059617 0.44691977966572055 0.7497536614275495 0.0
H H 0.16927129660668902 0.3875992598061517 0.7899575833741402 0.0
Cu Cu 0.5281311931708044 0.4858344539901253 0.0321571135670531 0.0
Si Si 0.4789481275460266 0.5060335656801266 0.5076442077904529 0.0
F F 0.5175738859979248 0.5023466529839499 0.6796631448136217 0.0
F F 0.5319530357390291 0.4937315139972749 0.18840528967171777 0.0
F F 0.5803872023062465 0.5810681811274029 0.5026154616641991 0.0
F F 0.4160154695883661 0.5740489526863579 0.45172351184333304 0.0
F F 0.45272960119331823 0.4402810768682697 0.5451892945314329 0.0
F F 0.6055553663902253 0.48961148415115324 0.5503047388155711 0.0
N N 0.4673368488796477 0.37333371613870014 -0.048760619227807014 0.0
N N 0.4882530194434827 0.636895256633575 0.02404430137988972 0.0
N N 0.6509198905606953 0.5113053236375128 0.025577020647575065 0.0
N N 0.3329989142109369 0.49192142676458245 -0.04084936374091832 0.0
