_cell_length_a 13.6316
_cell_length_b 13.6316
_cell_length_c 7.968
_cell_angle_alpha 90.0
_cell_angle_beta 90.0
_cell_angle_gamma 90.0
_symmetry_space_group_name_H-M         'P 1'
_symmetry_Int_Tables_number            1
loop_
_symmetry_equiv_pos_as_xyz
   'x, y, z'
                         
loop_
_atom_site_label
_atom_site_type_symbol
_atom_site_fract_x 
_atom_site_fract_y
_atom_site_fract_z
_atom_site_charge
C C 0.5669108553762715 0.6783215148640998 0.19013657113059368 0.0
C C 0.5150201644136486 0.7678495613981494 0.12003796700192512 0.0
C C 0.4862381186261892 0.31995384649119696 0.07470606901936368 0.0
C C 0.4716163440882007 0.21788369228587443 0.180602708123788 0.0
C C 0.339913860288056 0.5639210692413847 0.1882674600026312 0.0
C C 0.1603612373479925 0.5792101913911987 0.14275732743145106 0.0
C C 0.7120560769700882 0.5051245681787541 0.09793902435118833 0.0
C C 0.7685392358062543 0.47276907544909835 0.25936349029263894 0.0
C C 0.4087624576545016 0.6464964681026459 0.9034390026456487 0.0
C C 0.46877099262833005 0.789837281638737 0.8206268325297844 0.0
C C 0.5101549619178093 0.2878126744296178 0.8722260126394163 0.0
C C 0.5435463082257029 0.1957102069468545 0.9091642406029529 0.0
C C 0.7117024381386567 0.5433355734816256 0.8490224490092039 0.0
C C 0.7857220457065959 0.5233103561767922 0.7693819667803435 0.0
C C 0.26446764300148323 0.5018383127171331 0.8786368847752353 0.0
C C 0.18676230181407077 0.4498645073757952 0.8590310377259003 0.0
C C 0.5211593204979306 0.15583278282869684 -0.06439936788852443 0.0
C C 0.4880890888062009 0.0563874198346227 0.04981081579551792 0.0
C C 0.5210275629192426 0.9095639160048923 0.03126635358893153 0.0
C C 0.5543077082262027 0.9572203035700958 0.0739954558627475 0.0
C C 0.8550697578263333 0.48215359891553367 0.03171980282921691 0.0
C C 0.9687352693505632 0.4746176718216168 -0.059893674572759924 0.0
C C 0.08790330150309017 0.4977516807782227 -0.0315364296063527 0.0
C C 0.059357508904615205 0.5146069184478936 -0.1209579108979448 0.0
H H 0.5904388553762715 0.6351115148640998 0.29809957113059365 0.0
H H 0.5408101644136485 0.8056895613981494 0.2319359670019251 0.0
H H 0.4627101186261892 0.36316384649119693 0.18266906901936364 0.0
H H 0.44582634408820065 0.18004469228587444 0.29250070812378803 0.0
H H 0.38312386028805606 0.5874490692413846 0.2962304600026312 0.0
H H 0.1225222373479925 0.6050001913911985 0.25465532743145103 0.0
H H 0.6688460769700882 0.48159656817875407 0.2059020243511883 0.0
H H 0.8063792358062543 0.4469790754490983 0.37126149029263894 0.0
H H 0.3852344576545016 0.6032864681026461 0.7954760026456485 0.0
H H 0.4429809926283301 0.827677281638737 0.7087288325297844 0.0
H H 0.5336829619178093 0.33102267442961786 0.7642630126394163 0.0
H H 0.5693363082257029 0.1578712069468545 0.7972662406029528 0.0
H H 0.6684924381386568 0.5668635734816256 0.7410594490092037 0.0
H H 0.8235620457065959 0.5491003561767922 0.6574839667803435 0.0
H H 0.3076776430014833 0.4783103127171331 0.7706738847752352 0.0
H H 0.1489233018140708 0.4240745073757952 0.7471330377259002 0.0
Cu Cu 0.5120233995974113 0.5174303863553682 0.023329700945637983 0.0
Si Si 0.44211329943320293 0.48296270778237604 0.5308946512089566 0.0
F F 0.5220525415986551 0.48547772566968805 0.7385310418989437 0.0
F F 0.48210354713770465 0.5482997123492594 0.3158730840408167 0.0
F F 0.5645594228878679 0.6320366751033659 0.517140891670055 0.0
F F 0.38712803021531556 0.5311880526510974 0.5064781100917808 0.0
F F 0.4195271178166497 0.3995094508327856 0.4286405741081046 0.0
F F 0.6267632382114402 0.41415585024629603 0.5476801312959266 0.0
N N 0.516488748777858 0.4036170621618546 -0.02975830069123739 0.0
N N 0.48512219264115486 0.6431941493573712 0.07905981365542722 0.0
N N 0.6557454686259611 0.4931227275354443 0.00572955330913326 0.0
N N 0.3758173927454091 0.5109922580030858 -0.057806092919247334 0.0
