_cell_length_a 13.6316
_cell_length_b 13.6316
_cell_length_c 7.968
_cell_angle_alpha 90.0
_cell_angle_beta 90.0
_cell_angle_gamma 90.0
_symmetry_space_group_name_H-M         'P 1'
_symmetry_Int_Tables_number            1
loop_
_symmetry_equiv_pos_as_xyz
   'x, y, z'
                         
loop_
_atom_site_label
_atom_site_type_symbol
_atom_site_fract_x 
_atom_site_fract_y
_atom_site_fract_z
_atom_site_charge
C C 0.4946190542008162 0.6889346279079184 0.08345797185860976 0.0
C C 0.5174504080204722 0.7858039564609614 0.14404183229218084 0.0
C C 0.4994865032490601 0.2857894638324301 0.14768781077122367 0.0
C C 0.49100280045476247 0.14712247625923666 0.22089039387237377 0.0
C C 0.2803133664707169 0.5434802320143144 0.15552656004902868 0.0
C C 0.2257327944378552 0.5782137392349203 0.2092262065594314 0.0
C C 0.668909765637488 0.4646819766805283 0.15764415693545167 0.0
C C 0.8044260242660358 0.43299006829921355 -0.0007452468382979986 0.0
C C 0.4684678767107315 0.6912207717177263 0.8458686890583327 0.0
C C 0.49548379032854123 0.815216064488505 0.8450221325825867 0.0
C C 0.5402283716999284 0.2713069304164804 0.8703000995206338 0.0
C C 0.5281612665952912 0.21455323592797712 0.8587875860365844 0.0
C C 0.6877196609332537 0.5572468461051616 0.9206883115690677 0.0
C C 0.8115874810039383 0.5427320717302114 0.8069094548704023 0.0
C C 0.3031523789102966 0.4477669771589326 0.8503651055476886 0.0
C C 0.18184816656443506 0.48409653726991525 0.9362900879205996 0.0
C C 0.5301259475230135 0.17794570613650168 -0.02803784070532264 0.0
C C 0.5448621231007238 0.008768064504197697 -0.09432079168156088 0.0
C C 0.52724053682017 0.8523168855425172 -0.09661491361240958 0.0
C C 0.5681252288012755 0.9423073990974344 0.10485205133645417 0.0
C C 0.8986935386024849 0.48307648656823116 -0.0072492630062139015 0.0
C C 1.0269199758688905 0.5045269264774545 -0.05190567178105372 0.0
C C 0.15767777479143186 0.4967485722315042 0.01279483561251644 0.0
C C 0.04574665189686644 0.5281925393864437 -0.01765636836149224 0.0
H H 0.5181470542008162 0.6457246279079184 0.19142097185860973 0.0
H H 0.5432404080204721 0.8236439564609613 0.25593983229218087 0.0
H H 0.4759585032490601 0.3289994638324301 0.25565081077122365 0.0
H H 0.46521280045476243 0.10928347625923665 0.33278839387237374 0.0
H H 0.323523366470717 0.5670082320143145 0.2634895600490286 0.0
H H 0.18789379443785523 0.6040037392349202 0.3211242065594314 0.0
H H 0.6256997656374881 0.4411539766805283 0.2656071569354516 0.0
H H 0.8422660242660358 0.40720006829921346 0.11115275316170198 0.0
H H 0.44493987671073154 0.6480107717177264 0.7379056890583326 0.0
H H 0.46969379032854125 0.853056064488505 0.7331241325825867 0.0
H H 0.5637563716999284 0.3145169304164805 0.7623370995206338 0.0
H H 0.5539512665952911 0.17671423592797714 0.7468895860365843 0.0
H H 0.6445096609332537 0.5807748461051616 0.8127253115690677 0.0
H H 0.8494274810039383 0.5685220717302114 0.6950114548704023 0.0
H H 0.3463623789102967 0.42423897715893266 0.7424021055476885 0.0
H H 0.14400916656443505 0.4583065372699152 0.8243920879205996 0.0
Cu Cu 0.5306437538431619 0.4965312729161653 0.04237952895510526 0.0
Si Si 0.4948352855866649 0.5202143298117983 0.4705033096702337 0.0
F F 0.49085864262748075 0.46234905890645184 0.739349086729211 0.0
F F 0.5089493845539809 0.4808780083972123 0.30715956894927215 0.0
F F 0.5934837602374405 0.5538535147436771 0.493392906861706 0.0
F F 0.427258293802515 0.5831217244406984 0.45369021237683865 0.0
F F 0.4055067753469752 0.40815080066615383 0.5925285830766381 0.0
F F 0.6492137458760552 0.4072778100360487 0.4816770695080841 0.0
N N 0.5142196269994372 0.360781698845554 -0.016040421755654198 0.0
N N 0.5069074946813968 0.6375604233232856 -0.027749886931541793 0.0
N N 0.6726241724402074 0.5260483883931539 0.0023732224283942536 0.0
N N 0.31163177297633055 0.47218588405506107 -0.018444411331264243 0.0
