_cell_length_a 13.6316
_cell_length_b 13.6316
_cell_length_c 7.968
_cell_angle_alpha 90.0
_cell_angle_beta 90.0
_cell_angle_gamma 90.0
_symmetry_space_group_name_H-M         'P 1'
_symmetry_Int_Tables_number            1
loop_
_symmetry_equiv_pos_as_xyz
   'x, y, z'
                         
loop_
_atom_site_label
_atom_site_type_symbol
_atom_site_fract_x 
_atom_site_fract_y
_atom_site_fract_z
_atom_site_charge
C C 0.5471673295942855 0.6867798893184969 0.14961908078822111 0.0
C C 0.5330344589731069 0.7922426492181915 0.0854850391958296 0.0
C C 0.5267832162653944 0.25906567480234166 0.09392072299820402 0.0
C C 0.4451783342491167 0.1248269336748848 0.14933810031383105 0.0
C C 0.292471102481966 0.5370887368741311 0.09954020917597081 0.0
C C 0.1945579299555556 0.5647165811980347 0.09502091112664729 0.0
C C 0.6579909390183806 0.45490333998296467 0.13940504337636925 0.0
C C 0.7929819385831617 0.4566888736012655 0.08337159193586667 0.0
C C 0.46831183698051376 0.6980217616813676 0.7789813335121395 0.0
C C 0.47442402541754636 0.7908976867499544 0.7597511226395027 0.0
C C 0.5211956748770344 0.29868040189839645 0.8805268875719187 0.0
C C 0.5870782380821585 0.2314242942989949 0.9136609973250038 0.0
C C 0.6752358976791297 0.5504046102997604 0.8666385902318993 0.0
C C 0.8363456592612017 0.5135838751558754 0.8834716511474441 0.0
C C 0.3190096942603328 0.4635453026350882 0.7477361001592351 0.0
C C 0.18251237358980166 0.5248923654089632 0.9161108453182436 0.0
C C 0.49808046541406775 0.10864365159793325 -0.03271490254488546 0.0
C C 0.500298334482273 0.016449771294836008 -0.0862198014475955 0.0
C C 0.5412196377779726 0.8259836296320552 -0.0764992622031279 0.0
C C 0.4709153021006338 0.9267191591859882 -0.002817217238148198 0.0
C C 0.8568799553843329 0.4801996193134559 -0.0867107714252581 0.0
C C 0.9833029459540401 0.49728024836090995 -0.047419542845431824 0.0
C C 0.15224766217859834 0.5142194669716804 -0.05600405520261615 0.0
C C 0.06265464417246862 0.5037340076446076 0.07405320053696343 0.0
H H 0.5706953295942854 0.6435698893184969 0.2575820807882211 0.0
H H 0.5588244589731068 0.8300826492181915 0.19738303919582958 0.0
H H 0.5032552162653944 0.3022756748023417 0.201883722998204 0.0
H H 0.41938833424911665 0.08698793367488479 0.26123610031383104 0.0
H H 0.3356811024819661 0.560616736874131 0.2075032091759708 0.0
H H 0.15671892995555559 0.5905065811980347 0.20691891112664726 0.0
H H 0.6147809390183807 0.4313753399829647 0.2473680433763692 0.0
H H 0.8308219385831617 0.43089887360126544 0.19526959193586665 0.0
H H 0.4447838369805138 0.6548117616813677 0.6710183335121395 0.0
H H 0.4486340254175463 0.8287376867499544 0.6478531226395027 0.0
H H 0.5447236748770344 0.34189040189839653 0.7725638875719186 0.0
H H 0.6128682380821586 0.1935852942989949 0.8017629973250038 0.0
H H 0.6320258976791298 0.5739326102997604 0.7586755902318991 0.0
H H 0.8741856592612017 0.5393738751558754 0.771573651147444 0.0
H H 0.36221969426033285 0.44001730263508826 0.639773100159235 0.0
H H 0.14467337358980167 0.4991023654089631 0.8042128453182436 0.0
Cu Cu 0.4600045061679986 0.45089901499162577 0.04662382604765517 0.0
Si Si 0.5153797639695651 0.48602750064147415 0.48977958148094497 0.0
F F 0.4564002939194962 0.5005705731995501 0.6614261995402477 0.0
F F 0.5106585228491966 0.5046405487144001 0.26527902847002066 0.0
F F 0.6366400487715637 0.6306304370989081 0.49812866280061363 0.0
F F 0.3852690312058385 0.5902021376881899 0.5208598324489708 0.0
F F 0.3828967326749714 0.4082879570605222 0.5184835675869774 0.0
F F 0.599950128141649 0.43696829627847705 0.4847546217559452 0.0
N N 0.4796598812041219 0.35917888903901984 0.04049678863853535 0.0
N N 0.49113206006715954 0.6460929787160086 0.09396000087480842 0.0
N N 0.7177479467779244 0.4919084619765262 -0.05828986397275327 0.0
N N 0.34415031543561986 0.44148817670157586 -0.03436124035345087 0.0
