_cell_length_a 13.6316
_cell_length_b 13.6316
_cell_length_c 7.968
_cell_angle_alpha 90.0
_cell_angle_beta 90.0
_cell_angle_gamma 90.0
_symmetry_space_group_name_H-M         'P 1'
_symmetry_Int_Tables_number            1
loop_
_symmetry_equiv_pos_as_xyz
   'x, y, z'
                         
loop_
_atom_site_label
_atom_site_type_symbol
_atom_site_fract_x 
_atom_site_fract_y
_atom_site_fract_z
_atom_site_charge
C C 0.531242 0.697564 0.136446 0.0
C C 0.532527 0.799121 0.141096 0.0
C C 0.468758 0.302436 0.136446 0.0
C C 0.467473 0.200878 0.141096 0.0
C C 0.302436 0.531242 0.136446 0.0
C C 0.200878 0.532527 0.141096 0.0
C C 0.697564 0.468758 0.136446 0.0
C C 0.799121 0.467473 0.141096 0.0
C C 0.468758 0.697564 0.863554 0.0
C C 0.467473 0.799121 0.858904 0.0
C C 0.531242 0.302436 0.863554 0.0
C C 0.532527 0.200878 0.858904 0.0
C C 0.697564 0.531242 0.863554 0.0
C C 0.799121 0.532527 0.858904 0.0
C C 0.302436 0.468758 0.863554 0.0
C C 0.200878 0.467473 0.858904 0.0
C C 0.5 0.148117 0.0 0.0
C C 0.5 0.044631 0.0 0.0
C C 0.5 0.851883 0.0 0.0
C C 0.5 0.955369 0.0 0.0
C C 0.851883 0.5 0.0 0.0
C C 0.955369 0.5 0.0 0.0
C C 0.148117 0.5 0.0 0.0
C C 0.044631 0.5 0.0 0.0
H H 0.55477 0.654354 0.244409 0.0
H H 0.558317 0.836961 0.252994 0.0
H H 0.44523 0.345646 0.244409 0.0
H H 0.441683 0.163039 0.252994 0.0
H H 0.345646 0.55477 0.244409 0.0
H H 0.163039 0.558317 0.252994 0.0
H H 0.654354 0.44523 0.244409 0.0
H H 0.836961 0.441683 0.252994 0.0
H H 0.44523 0.654354 0.755591 0.0
H H 0.441683 0.836961 0.747006 0.0
H H 0.55477 0.345646 0.755591 0.0
H H 0.558317 0.163039 0.747006 0.0
H H 0.654354 0.55477 0.755591 0.0
H H 0.836961 0.558317 0.747006 0.0
H H 0.345646 0.44523 0.755591 0.0
H H 0.163039 0.441683 0.747006 0.0
Cu Cu 0.5 0.5 0.0 0.0
Si Si 0.5 0.5 0.5 0.0
F F 0.5 0.5 0.717971 0.0
F F 0.5 0.5 0.282029 0.0
F F 0.588894 0.588894 0.5 0.0
F F 0.411106 0.588894 0.5 0.0
F F 0.411106 0.411106 0.5 0.0
F F 0.588894 0.411106 0.5 0.0
N N 0.5 0.351922 0.0 0.0
N N 0.5 0.648078 0.0 0.0
N N 0.648078 0.5 0.0 0.0
N N 0.351922 0.5 0.0 0.0
_cell_length_a 13.6316
_cell_length_b 13.6316
_cell_length_c 7.968
_cell_angle_alpha 90.0
_cell_angle_beta 90.0
_cell_angle_gamma 90.0
_symmetry_space_group_name_H-M         'P 1'
_symmetry_Int_Tables_number            1
loop_
_symmetry_equiv_pos_as_xyz
   'x, y, z'
                         
loop_
_atom_site_label
_atom_site_type_symbol
_atom_site_fract_x 
_atom_site_fract_y
_atom_site_fract_z
_atom_site_charge
C C 0.531242 0.697564 0.136446 0.0
C C 0.532527 0.799121 0.141096 0.0
C C 0.468758 0.302436 0.136446 0.0
C C 0.467473 0.200878 0.141096 0.0
C C 0.302436 0.531242 0.136446 0.0
C C 0.200878 0.532527 0.141096 0.0
C C 0.697564 0.468758 0.136446 0.0
C C 0.799121 0.467473 0.141096 0.0
C C 0.468758 0.697564 0.863554 0.0
C C 0.467473 0.799121 0.858904 0.0
C C 0.531242 0.302436 0.863554 0.0
C C 0.532527 0.200878 0.858904 0.0
C C 0.697564 0.531242 0.863554 0.0
C C 0.799121 0.532527 0.858904 0.0
C C 0.302436 0.468758 0.863554 0.0
C C 0.200878 0.467473 0.858904 0.0
C C 0.5 0.148117 0.0 0.0
C C 0.5 0.044631 0.0 0.0
C C 0.5 0.851883 0.0 0.0
C C 0.5 0.955369 0.0 0.0
C C 0.851883 0.5 0.0 0.0
C C 0.955369 0.5 0.0 0.0
C C 0.148117 0.5 0.0 0.0
C C 0.044631 0.5 0.0 0.0
H H 0.55477 0.654354 0.244409 0.0
H H 0.558317 0.836961 0.252994 0.0
H H 0.44523 0.345646 0.244409 0.0
H H 0.441683 0.163039 0.252994 0.0
H H 0.345646 0.55477 0.244409 0.0
H H 0.163039 0.558317 0.252994 0.0
H H 0.654354 0.44523 0.244409 0.0
H H 0.836961 0.441683 0.252994 0.0
H H 0.44523 0.654354 0.755591 0.0
H H 0.441683 0.836961 0.747006 0.0
H H 0.55477 0.345646 0.755591 0.0
H H 0.558317 0.163039 0.747006 0.0
H H 0.654354 0.55477 0.755591 0.0
H H 0.836961 0.558317 0.747006 0.0
H H 0.345646 0.44523 0.755591 0.0
H H 0.163039 0.441683 0.747006 0.0
Cu Cu 0.5 0.5 0.0 0.0
Si Si 0.5 0.5 0.5 0.0
F F 0.5 0.5 0.717971 0.0
F F 0.5 0.5 0.282029 0.0
F F 0.588894 0.588894 0.5 0.0
F F 0.411106 0.588894 0.5 0.0
F F 0.411106 0.411106 0.5 0.0
F F 0.588894 0.411106 0.5 0.0
N N 0.5 0.351922 0.0 0.0
N N 0.5 0.648078 0.0 0.0
N N 0.648078 0.5 0.0 0.0
N N 0.351922 0.5 0.0 0.0
_cell_length_a 13.6316
_cell_length_b 13.6316
_cell_length_c 7.968
_cell_angle_alpha 90.0
_cell_angle_beta 90.0
_cell_angle_gamma 90.0
_symmetry_space_group_name_H-M         'P 1'
_symmetry_Int_Tables_number            1
loop_
_symmetry_equiv_pos_as_xyz
   'x, y, z'
                         
loop_
_atom_site_label
_atom_site_type_symbol
_atom_site_fract_x 
_atom_site_fract_y
_atom_site_fract_z
_atom_site_charge
C C 0.531242 0.697564 0.136446 0.0
C C 0.532527 0.799121 0.141096 0.0
C C 0.468758 0.302436 0.136446 0.0
C C 0.467473 0.200878 0.141096 0.0
C C 0.302436 0.531242 0.136446 0.0
C C 0.200878 0.532527 0.141096 0.0
C C 0.697564 0.468758 0.136446 0.0
C C 0.799121 0.467473 0.141096 0.0
C C 0.468758 0.697564 0.863554 0.0
C C 0.467473 0.799121 0.858904 0.0
C C 0.531242 0.302436 0.863554 0.0
C C 0.532527 0.200878 0.858904 0.0
C C 0.697564 0.531242 0.863554 0.0
C C 0.799121 0.532527 0.858904 0.0
C C 0.302436 0.468758 0.863554 0.0
C C 0.200878 0.467473 0.858904 0.0
C C 0.5 0.148117 0.0 0.0
C C 0.5 0.044631 0.0 0.0
C C 0.5 0.851883 0.0 0.0
C C 0.5 0.955369 0.0 0.0
C C 0.851883 0.5 0.0 0.0
C C 0.955369 0.5 0.0 0.0
C C 0.148117 0.5 0.0 0.0
C C 0.044631 0.5 0.0 0.0
H H 0.55477 0.654354 0.244409 0.0
H H 0.558317 0.836961 0.252994 0.0
H H 0.44523 0.345646 0.244409 0.0
H H 0.441683 0.163039 0.252994 0.0
H H 0.345646 0.55477 0.244409 0.0
H H 0.163039 0.558317 0.252994 0.0
H H 0.654354 0.44523 0.244409 0.0
H H 0.836961 0.441683 0.252994 0.0
H H 0.44523 0.654354 0.755591 0.0
H H 0.441683 0.836961 0.747006 0.0
H H 0.55477 0.345646 0.755591 0.0
H H 0.558317 0.163039 0.747006 0.0
H H 0.654354 0.55477 0.755591 0.0
H H 0.836961 0.558317 0.747006 0.0
H H 0.345646 0.44523 0.755591 0.0
H H 0.163039 0.441683 0.747006 0.0
Cu Cu 0.5 0.5 0.0 0.0
Si Si 0.5 0.5 0.5 0.0
F F 0.5 0.5 0.717971 0.0
F F 0.5 0.5 0.282029 0.0
F F 0.588894 0.588894 0.5 0.0
F F 0.411106 0.588894 0.5 0.0
F F 0.411106 0.411106 0.5 0.0
F F 0.588894 0.411106 0.5 0.0
N N 0.5 0.351922 0.0 0.0
N N 0.5 0.648078 0.0 0.0
N N 0.648078 0.5 0.0 0.0
N N 0.351922 0.5 0.0 0.0
_cell_length_a 13.6316
_cell_length_b 13.6316
_cell_length_c 7.968
_cell_angle_alpha 90.0
_cell_angle_beta 90.0
_cell_angle_gamma 90.0
_symmetry_space_group_name_H-M         'P 1'
_symmetry_Int_Tables_number            1
loop_
_symmetry_equiv_pos_as_xyz
   'x, y, z'
                         
loop_
_atom_site_label
_atom_site_type_symbol
_atom_site_fract_x 
_atom_site_fract_y
_atom_site_fract_z
_atom_site_charge
C C 0.531242 0.697564 0.136446 0.0
C C 0.532527 0.799121 0.141096 0.0
C C 0.468758 0.302436 0.136446 0.0
C C 0.467473 0.200878 0.141096 0.0
C C 0.302436 0.531242 0.136446 0.0
C C 0.200878 0.532527 0.141096 0.0
C C 0.697564 0.468758 0.136446 0.0
C C 0.799121 0.467473 0.141096 0.0
C C 0.468758 0.697564 0.863554 0.0
C C 0.467473 0.799121 0.858904 0.0
C C 0.531242 0.302436 0.863554 0.0
C C 0.532527 0.200878 0.858904 0.0
C C 0.697564 0.531242 0.863554 0.0
C C 0.799121 0.532527 0.858904 0.0
C C 0.302436 0.468758 0.863554 0.0
C C 0.200878 0.467473 0.858904 0.0
C C 0.5 0.148117 0.0 0.0
C C 0.5 0.044631 0.0 0.0
C C 0.5 0.851883 0.0 0.0
C C 0.5 0.955369 0.0 0.0
C C 0.851883 0.5 0.0 0.0
C C 0.955369 0.5 0.0 0.0
C C 0.148117 0.5 0.0 0.0
C C 0.044631 0.5 0.0 0.0
H H 0.55477 0.654354 0.244409 0.0
H H 0.558317 0.836961 0.252994 0.0
H H 0.44523 0.345646 0.244409 0.0
H H 0.441683 0.163039 0.252994 0.0
H H 0.345646 0.55477 0.244409 0.0
H H 0.163039 0.558317 0.252994 0.0
H H 0.654354 0.44523 0.244409 0.0
H H 0.836961 0.441683 0.252994 0.0
H H 0.44523 0.654354 0.755591 0.0
H H 0.441683 0.836961 0.747006 0.0
H H 0.55477 0.345646 0.755591 0.0
H H 0.558317 0.163039 0.747006 0.0
H H 0.654354 0.55477 0.755591 0.0
H H 0.836961 0.558317 0.747006 0.0
H H 0.345646 0.44523 0.755591 0.0
H H 0.163039 0.441683 0.747006 0.0
Cu Cu 0.5 0.5 0.0 0.0
Si Si 0.5 0.5 0.5 0.0
F F 0.5 0.5 0.717971 0.0
F F 0.5 0.5 0.282029 0.0
F F 0.588894 0.588894 0.5 0.0
F F 0.411106 0.588894 0.5 0.0
F F 0.411106 0.411106 0.5 0.0
F F 0.588894 0.411106 0.5 0.0
N N 0.5 0.351922 0.0 0.0
N N 0.5 0.648078 0.0 0.0
N N 0.648078 0.5 0.0 0.0
N N 0.351922 0.5 0.0 0.0
_cell_length_a 13.6316
_cell_length_b 13.6316
_cell_length_c 7.968
_cell_angle_alpha 90.0
_cell_angle_beta 90.0
_cell_angle_gamma 90.0
_symmetry_space_group_name_H-M         'P 1'
_symmetry_Int_Tables_number            1
loop_
_symmetry_equiv_pos_as_xyz
   'x, y, z'
                         
loop_
_atom_site_label
_atom_site_type_symbol
_atom_site_fract_x 
_atom_site_fract_y
_atom_site_fract_z
_atom_site_charge
C C 0.531242 0.697564 0.136446 0.0
C C 0.532527 0.799121 0.141096 0.0
C C 0.468758 0.302436 0.136446 0.0
C C 0.467473 0.200878 0.141096 0.0
C C 0.302436 0.531242 0.136446 0.0
C C 0.200878 0.532527 0.141096 0.0
C C 0.697564 0.468758 0.136446 0.0
C C 0.799121 0.467473 0.141096 0.0
C C 0.468758 0.697564 0.863554 0.0
C C 0.467473 0.799121 0.858904 0.0
C C 0.531242 0.302436 0.863554 0.0
C C 0.532527 0.200878 0.858904 0.0
C C 0.697564 0.531242 0.863554 0.0
C C 0.799121 0.532527 0.858904 0.0
C C 0.302436 0.468758 0.863554 0.0
C C 0.200878 0.467473 0.858904 0.0
C C 0.5 0.148117 0.0 0.0
C C 0.5 0.044631 0.0 0.0
C C 0.5 0.851883 0.0 0.0
C C 0.5 0.955369 0.0 0.0
C C 0.851883 0.5 0.0 0.0
C C 0.955369 0.5 0.0 0.0
C C 0.148117 0.5 0.0 0.0
C C 0.044631 0.5 0.0 0.0
H H 0.55477 0.654354 0.244409 0.0
H H 0.558317 0.836961 0.252994 0.0
H H 0.44523 0.345646 0.244409 0.0
H H 0.441683 0.163039 0.252994 0.0
H H 0.345646 0.55477 0.244409 0.0
H H 0.163039 0.558317 0.252994 0.0
H H 0.654354 0.44523 0.244409 0.0
H H 0.836961 0.441683 0.252994 0.0
H H 0.44523 0.654354 0.755591 0.0
H H 0.441683 0.836961 0.747006 0.0
H H 0.55477 0.345646 0.755591 0.0
H H 0.558317 0.163039 0.747006 0.0
H H 0.654354 0.55477 0.755591 0.0
H H 0.836961 0.558317 0.747006 0.0
H H 0.345646 0.44523 0.755591 0.0
H H 0.163039 0.441683 0.747006 0.0
Cu Cu 0.5 0.5 0.0 0.0
Si Si 0.5 0.5 0.5 0.0
F F 0.5 0.5 0.717971 0.0
F F 0.5 0.5 0.282029 0.0
F F 0.588894 0.588894 0.5 0.0
F F 0.411106 0.588894 0.5 0.0
F F 0.411106 0.411106 0.5 0.0
F F 0.588894 0.411106 0.5 0.0
N N 0.5 0.351922 0.0 0.0
N N 0.5 0.648078 0.0 0.0
N N 0.648078 0.5 0.0 0.0
N N 0.351922 0.5 0.0 0.0
_cell_length_a 13.6316
_cell_length_b 13.6316
_cell_length_c 7.968
_cell_angle_alpha 90.0
_cell_angle_beta 90.0
_cell_angle_gamma 90.0
_symmetry_space_group_name_H-M         'P 1'
_symmetry_Int_Tables_number            1
loop_
_symmetry_equiv_pos_as_xyz
   'x, y, z'
                         
loop_
_atom_site_label
_atom_site_type_symbol
_atom_site_fract_x 
_atom_site_fract_y
_atom_site_fract_z
_atom_site_charge
C C 0.531242 0.697564 0.136446 0.0
C C 0.532527 0.799121 0.141096 0.0
C C 0.468758 0.302436 0.136446 0.0
C C 0.467473 0.200878 0.141096 0.0
C C 0.302436 0.531242 0.136446 0.0
C C 0.200878 0.532527 0.141096 0.0
C C 0.697564 0.468758 0.136446 0.0
C C 0.799121 0.467473 0.141096 0.0
C C 0.468758 0.697564 0.863554 0.0
C C 0.467473 0.799121 0.858904 0.0
C C 0.531242 0.302436 0.863554 0.0
C C 0.532527 0.200878 0.858904 0.0
C C 0.697564 0.531242 0.863554 0.0
C C 0.799121 0.532527 0.858904 0.0
C C 0.302436 0.468758 0.863554 0.0
C C 0.200878 0.467473 0.858904 0.0
C C 0.5 0.148117 0.0 0.0
C C 0.5 0.044631 0.0 0.0
C C 0.5 0.851883 0.0 0.0
C C 0.5 0.955369 0.0 0.0
C C 0.851883 0.5 0.0 0.0
C C 0.955369 0.5 0.0 0.0
C C 0.148117 0.5 0.0 0.0
C C 0.044631 0.5 0.0 0.0
H H 0.55477 0.654354 0.244409 0.0
H H 0.558317 0.836961 0.252994 0.0
H H 0.44523 0.345646 0.244409 0.0
H H 0.441683 0.163039 0.252994 0.0
H H 0.345646 0.55477 0.244409 0.0
H H 0.163039 0.558317 0.252994 0.0
H H 0.654354 0.44523 0.244409 0.0
H H 0.836961 0.441683 0.252994 0.0
H H 0.44523 0.654354 0.755591 0.0
H H 0.441683 0.836961 0.747006 0.0
H H 0.55477 0.345646 0.755591 0.0
H H 0.558317 0.163039 0.747006 0.0
H H 0.654354 0.55477 0.755591 0.0
H H 0.836961 0.558317 0.747006 0.0
H H 0.345646 0.44523 0.755591 0.0
H H 0.163039 0.441683 0.747006 0.0
Cu Cu 0.5 0.5 0.0 0.0
Si Si 0.5 0.5 0.5 0.0
F F 0.5 0.5 0.717971 0.0
F F 0.5 0.5 0.282029 0.0
F F 0.588894 0.588894 0.5 0.0
F F 0.411106 0.588894 0.5 0.0
F F 0.411106 0.411106 0.5 0.0
F F 0.588894 0.411106 0.5 0.0
N N 0.5 0.351922 0.0 0.0
N N 0.5 0.648078 0.0 0.0
N N 0.648078 0.5 0.0 0.0
N N 0.351922 0.5 0.0 0.0
_cell_length_a 13.6316
_cell_length_b 13.6316
_cell_length_c 7.968
_cell_angle_alpha 90.0
_cell_angle_beta 90.0
_cell_angle_gamma 90.0
_symmetry_space_group_name_H-M         'P 1'
_symmetry_Int_Tables_number            1
loop_
_symmetry_equiv_pos_as_xyz
   'x, y, z'
                         
loop_
_atom_site_label
_atom_site_type_symbol
_atom_site_fract_x 
_atom_site_fract_y
_atom_site_fract_z
_atom_site_charge
C C 0.531242 0.697564 0.136446 0.0
C C 0.532527 0.799121 0.141096 0.0
C C 0.468758 0.302436 0.136446 0.0
C C 0.467473 0.200878 0.141096 0.0
C C 0.302436 0.531242 0.136446 0.0
C C 0.200878 0.532527 0.141096 0.0
C C 0.697564 0.468758 0.136446 0.0
C C 0.799121 0.467473 0.141096 0.0
C C 0.468758 0.697564 0.863554 0.0
C C 0.467473 0.799121 0.858904 0.0
C C 0.531242 0.302436 0.863554 0.0
C C 0.532527 0.200878 0.858904 0.0
C C 0.697564 0.531242 0.863554 0.0
C C 0.799121 0.532527 0.858904 0.0
C C 0.302436 0.468758 0.863554 0.0
C C 0.200878 0.467473 0.858904 0.0
C C 0.5 0.148117 0.0 0.0
C C 0.5 0.044631 0.0 0.0
C C 0.5 0.851883 0.0 0.0
C C 0.5 0.955369 0.0 0.0
C C 0.851883 0.5 0.0 0.0
C C 0.955369 0.5 0.0 0.0
C C 0.148117 0.5 0.0 0.0
C C 0.044631 0.5 0.0 0.0
H H 0.55477 0.654354 0.244409 0.0
H H 0.558317 0.836961 0.252994 0.0
H H 0.44523 0.345646 0.244409 0.0
H H 0.441683 0.163039 0.252994 0.0
H H 0.345646 0.55477 0.244409 0.0
H H 0.163039 0.558317 0.252994 0.0
H H 0.654354 0.44523 0.244409 0.0
H H 0.836961 0.441683 0.252994 0.0
H H 0.44523 0.654354 0.755591 0.0
H H 0.441683 0.836961 0.747006 0.0
H H 0.55477 0.345646 0.755591 0.0
H H 0.558317 0.163039 0.747006 0.0
H H 0.654354 0.55477 0.755591 0.0
H H 0.836961 0.558317 0.747006 0.0
H H 0.345646 0.44523 0.755591 0.0
H H 0.163039 0.441683 0.747006 0.0
Cu Cu 0.5 0.5 0.0 0.0
Si Si 0.5 0.5 0.5 0.0
F F 0.5 0.5 0.717971 0.0
F F 0.5 0.5 0.282029 0.0
F F 0.588894 0.588894 0.5 0.0
F F 0.411106 0.588894 0.5 0.0
F F 0.411106 0.411106 0.5 0.0
F F 0.588894 0.411106 0.5 0.0
N N 0.5 0.351922 0.0 0.0
N N 0.5 0.648078 0.0 0.0
N N 0.648078 0.5 0.0 0.0
N N 0.351922 0.5 0.0 0.0
