_cell_length_a 8.39304
_cell_length_b 22.23511
_cell_length_c 18.74218
_cell_angle_alpha 90.0
_cell_angle_beta 94.0312
_cell_angle_gamma 90.0
_symmetry_space_group_name_H-M         'P 1'
_symmetry_Int_Tables_number            1
loop_
_symmetry_equiv_pos_as_xyz
   'x, y, z'
                         
loop_
_atom_site_label
_atom_site_type_symbol
_atom_site_fract_x 
_atom_site_fract_y
_atom_site_fract_z
_atom_site_charge
Cd Cd 0.30591248360563794 0.5565992776042246 0.9915546738281914 0.0
O O 0.41414403339559885 0.4677465784487814 1.0494978792445513 0.0
O O 0.20003220039427874 0.5072511238881371 1.0679974498581954 0.0
O O 0.894763546450615 0.7697968206655937 1.1590329867941929 0.0
O O 0.3927732347774038 0.7742655843608034 1.265674811902037 0.0
N N 0.47210312232165597 0.6192254388458172 1.0766594165650847 0.0
N N 0.6727773866286882 0.7599386606360354 1.2041417369620415 0.0
C C 0.30402894729856117 0.469872094007817 1.1044676349435534 0.0
C C 0.28835811051366333 0.4279592388784711 1.147094889118419 0.0
C C 0.10753641880871345 0.4184935194045734 1.1757864031915066 0.0
H H 0.032626418808713406 0.44935351940457346 1.1631464031915066 0.0
C C 0.10324509639876442 0.37671842873073297 1.2397951973819672 0.0
H H 0.004335096398764387 0.377278428730733 1.2614551973819672 0.0
C C 0.2286022165093873 0.3449827442582447 1.2462337132552945 0.0
C C 0.3660077417019166 0.33689812272289804 1.2184611244313657 0.0
C C 0.3647341334923725 0.3741825366632773 1.1679948293433455 0.0
H H 0.4623441334923726 0.3721525366632773 1.1454648293433454 0.0
C C 0.5352272977243745 0.7806429184346273 1.2425841305232965 0.0
C C 0.7883114274057905 0.7806554802083528 1.1889748967433162 0.0
C C 0.5633711884101555 0.6663551887412705 1.054090776936919 0.0
H H 0.5917811884101556 0.6636251887412705 1.005960776936919 0.0
C C 0.6293987778958602 0.7148476542651586 1.0959428471719521 0.0
H H 0.7002087778958602 0.7432176542651586 1.0774028471719521 0.0
C C 0.5893323991231214 0.7042792251484397 1.164881289724301 0.0
C C 0.47970695894262994 0.6631142050306409 1.1875305745089992 0.0
H H 0.45139695894263 0.6632842050306409 1.2356905745089994 0.0
C C 0.4324969949731961 0.628376935022937 1.1445737030330057 0.0
H H 0.35900699497319605 0.5998469350229371 1.1609337030330058 0.0
O O 0.29545412597227766 0.6428126736113605 0.9154530560901035 0.0
O O 0.06294687531752927 0.6193226105094373 0.9952233261781626 0.0
O O -0.16104590341645642 0.33398559101918285 0.7520518843279653 0.0
O O 0.34663148931684407 0.3733263864449612 0.6642035657399057 0.0
N N 0.08668439158946528 0.368413936399661 0.7490687878259035 0.0
N N 0.21539442694472108 0.5044318403315623 0.9016581788842397 0.0
C C 0.12842405826559097 0.6594271319245527 0.9397409511258399 0.0
C C 0.05524308537995265 0.7116039975248732 0.911905662866969 0.0
C C -0.0845979248686179 0.709796208791461 0.9406012326707962 0.0
H H -0.11880792486861792 0.6850662087914611 0.9778612326707962 0.0
C C 0.1667256865528333 0.2623804175484697 0.5817968299268143 0.0
H H 0.26513568655283326 0.2712504175484697 0.5620568299268143 0.0
C C 0.12085837727084711 0.2984148842101678 0.6334576616417612 0.0
C C -0.004823457507940864 0.2800041103090342 0.6791788699468319 0.0
C C 0.09291841442178407 0.7466975092046467 0.8560690543899098 0.0
H H 0.19340841442178408 0.7392675092046468 0.8373290543899097 0.0
C C 0.19386478825591763 0.3488062318921024 0.6771613097227354 0.0
C C -0.042137753114567064 0.33574731568373856 0.7184029622864915 0.0
C C 0.2573681729871653 0.5103083827099018 0.8165459788163161 0.0
H H 0.3128881729871653 0.5460783827099018 0.8063159788163161 0.0
C C 0.22847064481126245 0.4590328540919277 0.7755011970650622 0.0
H H 0.25678064481126245 0.46750285409192766 0.7283611970650623 0.0
C C 0.12999987187924336 0.41671199533415987 0.7992730465282015 0.0
C C 0.1249506275815741 0.40158017256744766 0.8653867579193227 0.0
H H 0.06497062758157413 0.36715017256744764 0.8772467579193228 0.0
C C 0.15348698801598917 0.4488862008000469 0.9136384552410085 0.0
H H 0.12173698801598914 0.4422662008000468 0.9607184552410085 0.0
Cd Cd -0.31287595027853293 1.0594507893431853 -0.5012563217847275 0.0
O O -0.40489890801284617 0.9595480665933158 -0.560829159593185 0.0
O O -0.1841831064588613 1.0088912323677763 -0.5865700707075776 0.0
O O -0.8785054777166955 1.278198326583089 -0.6653487208892314 0.0
O O -0.43029929254830473 1.2617933833321695 -0.7577247419513086 0.0
N N -0.43245040436129134 1.1255714525757947 -0.5712889432567534 0.0
N N -0.6496396682750937 1.25926228431765 -0.7106198631348593 0.0
C C -0.31600607377346634 0.9664208986183112 -0.59998349010611 0.0
C C -0.3030370532660479 0.9145531236784004 -0.6552019462299854 0.0
C C -0.14289799051303284 0.9155062504259723 -0.6805574174422764 0.0
H H -0.06798799051303284 0.9463662504259726 -0.6679174174422764 0.0
C C -0.12094486852595512 0.8804244297606538 -0.7446750964158695 0.0
H H -0.022034868525955098 0.8809844297606538 -0.7663350964158695 0.0
C C -0.20193224196657936 0.8439564940779232 -0.7458334125354092 0.0
C C -0.3612917523518004 0.8268296265377134 -0.7106544073178289 0.0
C C -0.38441132267577083 0.870718169469852 -0.6765731789782551 0.0
H H -0.48202132267577097 0.868688169469852 -0.6540431789782551 0.0
C C -0.5291948097430295 1.2948041162527164 -0.7494896280070945 0.0
C C -0.8023410870135981 1.280285462462069 -0.6935682813785802 0.0
C C -0.5593624554644873 1.1547433787685157 -0.5310679413609307 0.0
H H -0.5877724554644874 1.1520133787685156 -0.4829379413609308 0.0
C C -0.633038436455658 1.2091720096827028 -0.5911852781870889 0.0
H H -0.7038484364556582 1.2375420096827028 -0.5726452781870888 0.0
C C -0.6119698726951426 1.2145511178426316 -0.6527568069927513 0.0
C C -0.4776095055634821 1.1690948445207399 -0.6674046001965779 0.0
H H -0.449299505563482 1.1692648445207399 -0.7155646001965777 0.0
C C -0.4056178616179824 1.1306692389004478 -0.622852087567714 0.0
H H -0.33212786161798236 1.1021392389004478 -0.6392120875677143 0.0
O O -0.26643277309103913 1.1313448035995688 -0.4089833098544811 0.0
O O -0.11247116359213322 1.1266918953828284 -0.48306256318184865 0.0
O O 0.15466179532267083 0.8422607781100955 -0.2600614617178999 0.0
O O -0.326472138931785 0.8707153734831241 -0.16916567576427136 0.0
N N -0.09638114047189944 0.8699248378560869 -0.2301192474843194 0.0
N N -0.2535666118247114 0.9937197479255163 -0.3887381714955413 0.0
C C -0.1243249490762283 1.154629634574615 -0.43513704075739174 0.0
C C -0.06379721500913699 1.2144669827426933 -0.4015391907113737 0.0
C C 0.08769508716306885 1.2267638518159216 -0.43893414743159237 0.0
H H 0.12190508716306885 1.2020338518159217 -0.47619414743159233 0.0
C C -0.1912905303202277 0.7747210934575521 -0.08294402170961246 0.0
H H -0.2897005303202277 0.7835910934575522 -0.06320402170961248 0.0
C C -0.1628519045378669 0.8040705892293946 -0.13241921661972134 0.0
C C 0.010044638896183063 0.7800490341738017 -0.165873928377695 0.0
C C -0.1054032721126658 1.2478424091778781 -0.35786495519717576 0.0
H H -0.2058932721126658 1.2404124091778783 -0.33912495519717584 0.0
C C -0.21922823653346374 0.8523565585277634 -0.1786140387081829 0.0
C C 0.054605956162535434 0.8318988320628156 -0.2409077192813172 0.0
C C -0.247848084726866 0.9979460423919766 -0.3292185535360711 0.0
H H -0.30336808472686594 1.0337160423919767 -0.31898855353607114 0.0
C C -0.23179971826135895 0.9701762826908087 -0.2784815145165148 0.0
H H -0.2601097182613589 0.9786462826908087 -0.23134151451651483 0.0
C C -0.157899586725488 0.9111765066872557 -0.2832798579310884 0.0
C C -0.12173275829236678 0.8979826647142671 -0.34925678580077013 0.0
H H -0.061752758292366795 0.8635526647142672 -0.3611167858007701 0.0
C C -0.15350615401977244 0.9445531753264816 -0.3936420054324803 0.0
H H -0.12175615401977244 0.9379331753264816 -0.44072200543248025 0.0
Cd Cd -0.30357260267891883 -0.5525431380699314 -0.9869922377042015 0.0
O O -0.45423580545184056 -0.4592538947335966 -1.0455005224384746 0.0
O O -0.1859967110713514 -0.5031930204445318 -1.0802536739936663 0.0
O O -0.8973388547048325 -0.7637125873119059 -1.1492470190086108 0.0
O O -0.4254967145135866 -0.7688986305008494 -1.2669233225095957 0.0
N N -0.43846072303246286 -0.6120308896427756 -1.0612692166745672 0.0
N N -0.6645234234292674 -0.7595443507922053 -1.1912941739157143 0.0
C C -0.2886565846289168 -0.4686069476684721 -1.087766545545006 0.0
C C -0.27377266247898485 -0.4122762308329246 -1.1362471657830377 0.0
C C -0.16147768360466364 -0.41824988888278497 -1.173519782031823 0.0
H H -0.0865676836046636 -0.44910988888278497 -1.160879782031823 0.0
C C -0.08865715491012392 -0.38042119244662537 -1.2266396769259205 0.0
H H 0.010252845089876096 -0.38098119244662537 -1.2482996769259205 0.0
C C -0.21269706141445818 -0.340953063025084 -1.262927335502689 0.0
C C -0.3753183903594002 -0.3365385589539765 -1.2211884397562014 0.0
C C -0.38173892704267604 -0.3825467927960275 -1.1592032197057025 0.0
H H -0.4793489270426761 -0.38051679279602746 -1.1366732197057026 0.0
C C -0.5477949527104516 -0.7785682147752033 -1.2633675618765898 0.0
C C -0.7785618999731346 -0.7885800502386151 -1.2046065704553683 0.0
C C -0.5601882379188166 -0.6544305633255314 -1.0441411834204861 0.0
H H -0.5885982379188165 -0.6517005633255316 -0.9960111834204863 0.0
C C -0.5957121333788639 -0.7113433464847193 -1.0898758442253302 0.0
H H -0.6665221333788639 -0.7397133464847192 -1.0713358442253302 0.0
C C -0.6107421186665374 -0.7173013570246531 -1.14926870907699 0.0
C C -0.49389351999780984 -0.6631924203432339 -1.1671067668295854 0.0
H H -0.4655835199978099 -0.6633624203432339 -1.2152667668295856 0.0
C C -0.44282214883613025 -0.6260859688529397 -1.1392661859084272 0.0
H H -0.3693321488361303 -0.5975559688529397 -1.1556261859084274 0.0
O O -0.2666662807142334 -0.6346598849763843 -0.9209406832724572 0.0
O O -0.10676067277745219 -0.6249519532001675 -0.9965653908758179 0.0
O O 0.11545515187561038 -0.3321289213763893 -0.7648031267309643 0.0
O O -0.3506535762077928 -0.37700172657700687 -0.6817846659983896 0.0
N N -0.11975214970194126 -0.367250462544964 -0.7227825225859974 0.0
N N -0.24674743881869046 -0.4889441316414455 -0.887561416562764 0.0
C C -0.14249640556756096 -0.6488283551725976 -0.9404283000820616 0.0
C C -0.02781398479778702 -0.7113878549163499 -0.9026116381300221 0.0
C C 0.11669618689472472 -0.7184835469534822 -0.9394700835709893 0.0
H H 0.15090618689472474 -0.6937535469534822 -0.9767300835709892 0.0
C C -0.18914227250852075 -0.2711479895102343 -0.5989123957277135 0.0
H H -0.2875522725085208 -0.28001798951023427 -0.5791723957277135 0.0
C C -0.16811714323004154 -0.3046797714794615 -0.650233015298151 0.0
C C 0.029079836204376323 -0.28931240014093756 -0.665757060431732 0.0
C C -0.08341786845255574 -0.7478083431110759 -0.8554925559674776 0.0
H H -0.18390786845255577 -0.740378343111076 -0.8367525559674777 0.0
C C -0.23142765259339632 -0.3563254116338226 -0.6766295589254603 0.0
C C 0.0057966978446792605 -0.33438634073298307 -0.7191314909652435 0.0
C C -0.26137938146579265 -0.5058949706055081 -0.8221145288731969 0.0
H H -0.3168993814657926 -0.5416649706055082 -0.8118845288731968 0.0
C C -0.21168054263714742 -0.4622737352342869 -0.7694218697804862 0.0
H H -0.23999054263714742 -0.47074373523428686 -0.7222818697804863 0.0
C C -0.11791459253261619 -0.40814109163070433 -0.7828104409110073 0.0
C C -0.10703278088930604 -0.40803312914397727 -0.8617049880230843 0.0
H H -0.04705278088930607 -0.3736031291439773 -0.8735649880230844 0.0
C C -0.14406022683360345 -0.435532896899234 -0.9028792616432351 0.0
H H -0.11231022683360344 -0.42891289689923395 -0.9499592616432351 0.0
Cd Cd 0.3124135074785931 -1.0578925647758708 0.47810832408502646 0.0
O O 0.44206258716279845 -0.9576601983924741 0.5437467171675554 0.0
O O 0.23665506419828908 -1.0098875871740285 0.5794492569366125 0.0
O O 0.870131180900183 -1.2670226169997496 0.6721431423999948 0.0
O O 0.41038088789845834 -1.2793095799285998 0.7633630528950193 0.0
N N 0.47714398430082444 -1.1179741200679234 0.5721643216255978 0.0
N N 0.6641389852020656 -1.2579185508398805 0.6881514574644806 0.0
C C 0.3114318974557036 -0.9641475917073565 0.5792584225733636 0.0
C C 0.3012962604126072 -0.9196756697581997 0.6373443123387137 0.0
C C 0.10548251573487631 -0.9211844469680629 0.6755561842678289 0.0
H H 0.03057251573487632 -0.9520444469680631 0.662916184267829 0.0
C C 0.10682717385283208 -0.8751698642243527 0.7403213379515657 0.0
H H 0.00791717385283206 -0.8757298642243527 0.7619813379515659 0.0
C C 0.24114051033093903 -0.8382813710950758 0.7595881021957274 0.0
C C 0.34818872164551984 -0.8427435800940725 0.7157998182421651 0.0
C C 0.3950334866024151 -0.8686016667325831 0.666293941544355 0.0
H H 0.4926434866024152 -0.8665716667325831 0.6437639415443549 0.0
C C 0.5471391316023753 -1.2879078800742363 0.746073167223884 0.0
C C 0.7748833210304431 -1.2879964687970993 0.7059384588589709 0.0
C C 0.5485239107037694 -1.161324210466643 0.5380739456454176 0.0
H H 0.5769339107037695 -1.158594210466643 0.48994394564541766 0.0
C C 0.6300209720602808 -1.202134185741156 0.5801013579096062 0.0
H H 0.700830972060281 -1.230504185741156 0.5615613579096062 0.0
C C 0.5663030276524076 -1.2132068129244888 0.6497121844034717 0.0
C C 0.47557336061470834 -1.1689844062779546 0.6735814501447586 0.0
H H 0.4472633606147082 -1.1691544062779546 0.7217414501447585 0.0
C C 0.4078175478059142 -1.1302797865679928 0.6387983824294566 0.0
H H 0.3343275478059142 -1.1017497865679928 0.6551583824294569 0.0
O O 0.27540135983937714 -1.13358511995341 0.4041806024580512 0.0
O O 0.08922332812838514 -1.130907118434251 0.4959383940081893 0.0
O O -0.13728597565438883 -0.8396710068034469 0.2756336044101774 0.0
O O 0.3304184130637407 -0.8741893690415228 0.1882856548172555 0.0
N N 0.08216260353055146 -0.8679862286771911 0.24500599712185392 0.0
N N 0.2079053893752142 -0.9965224607579447 0.4040937261350752 0.0
C C 0.16801096497257184 -1.15717424838031 0.43853375141923995 0.0
C C 0.021226326973010544 -1.2099497898937275 0.410253486899027 0.0
C C -0.10914751872969718 -1.2216720752798318 0.44780953011192276 0.0
H H -0.14335751872969715 -1.1969420752798319 0.4850695301119228 0.0
C C 0.1633067565116161 -0.7625378166637753 0.08575608342092003 0.0
H H 0.26171675651161613 -0.7714078166637753 0.06601608342092005 0.0
C C 0.12955627681256027 -0.7944090320253827 0.15432631219719678 0.0
C C 0.007746670362166719 -0.7929207548369612 0.17127997547314147 0.0
C C 0.07997268468193842 -1.2494856262626302 0.3483848798250976 0.0
H H 0.1804626846819384 -1.2420556262626303 0.3296448798250976 0.0
C C 0.24495703641974992 -0.8495048631475287 0.1764881931432333 0.0
C C -0.03549975887681882 -0.8391209387011866 0.23012568628289795 0.0
C C 0.27184362023711517 -1.0114608119255297 0.3338198196011775 0.0
H H 0.3273636202371152 -1.0472308119255298 0.3235898196011776 0.0
C C 0.245930593762279 -0.9689797686734345 0.2625995057988686 0.0
H H 0.274240593762279 -0.9774497686734345 0.2154595057988686 0.0
C C 0.11813224933754274 -0.9087871872077212 0.29521784784777777 0.0
C C 0.1077682619706706 -0.9018191202408208 0.35296430702600934 0.0
H H 0.047788261970670605 -0.8673891202408208 0.3648243070260094 0.0
C C 0.13181703686119883 -0.9510184012744954 0.40063217420360403 0.0
H H 0.10006703686119883 -0.9443984012744954 0.447712174203604 0.0
