_cell_length_a 8.39304
_cell_length_b 22.23511
_cell_length_c 18.74218
_cell_angle_alpha 90.0
_cell_angle_beta 94.0312
_cell_angle_gamma 90.0
_symmetry_space_group_name_H-M         'P 1'
_symmetry_Int_Tables_number            1
loop_
_symmetry_equiv_pos_as_xyz
   'x, y, z'
                         
loop_
_atom_site_label
_atom_site_type_symbol
_atom_site_fract_x 
_atom_site_fract_y
_atom_site_fract_z
_atom_site_charge
Cd Cd 0.2925872262950488 0.5541248456366845 0.978210007741473 0.0
O O 0.4148962760675275 0.4491334264900241 1.0431022823501528 0.0
O O 0.18696552028304309 0.5090650011695149 1.07833793229817 0.0
O O 0.8711248440273197 0.7679552214424861 1.1589256128727436 0.0
O O 0.4436752528793813 0.7758125251198056 1.2654135393379522 0.0
N N 0.43952483854412006 0.6143874536654395 1.054669294532845 0.0
N N 0.633157136825649 0.75069089481271 1.1963876464697911 0.0
C C 0.30719470945486055 0.46505199205175607 1.0983840694634854 0.0
C C 0.28126471453408974 0.4249574442744276 1.1588047013447214 0.0
C C 0.11988092054695204 0.4266139344526041 1.192168801949413 0.0
H H 0.044970920546951974 0.45747393445260415 1.179528801949413 0.0
C C 0.06869589657442181 0.3767548602799297 1.2267331155046959 0.0
H H -0.030214103425578225 0.3773148602799297 1.248393115504696 0.0
C C 0.21455929841864463 0.34671916472883413 1.2496537671559 0.0
C C 0.35455711173405485 0.3385015996919915 1.231521070190172 0.0
C C 0.3752713613982543 0.369470834576175 1.152774300008728 0.0
H H 0.4728813613982544 0.36744083457617505 1.130244300008728 0.0
C C 0.5747896336571573 0.7801222474404014 1.242718555550016 0.0
C C 0.7950470105246675 0.7949181620545196 1.2106743319678714 0.0
C C 0.5246167882282007 0.6619309090675068 1.0342344150389744 0.0
H H 0.5530267882282007 0.6592009090675071 0.9861044150389745 0.0
C C 0.6378971242355175 0.7175226670996319 1.0878726748245036 0.0
H H 0.7087071242355175 0.7458926670996318 1.0693326748245038 0.0
C C 0.5857813529757365 0.7176042218641338 1.161550670776031 0.0
C C 0.4624660593099509 0.6562296762096426 1.1756565060423716 0.0
H H 0.4341560593099509 0.6563996762096426 1.2238165060423718 0.0
C C 0.40935055236838125 0.6227643856306215 1.1219921463282478 0.0
H H 0.33586055236838125 0.5942343856306216 1.1383521463282478 0.0
O O 0.2845723259177387 0.6471142499479161 0.9090683312779422 0.0
O O 0.07285374006989341 0.6251895066441437 0.9912147802039097 0.0
O O -0.15500382960740713 0.33490898146804554 0.7764483356925362 0.0
O O 0.32155528873539774 0.3751298897843501 0.6864918317326539 0.0
N N 0.08803769591304977 0.37208244449960953 0.723088674510518 0.0
N N 0.20547946462673167 0.5042114827973172 0.8908435322333578 0.0
C C 0.1722178022372587 0.6534382730230339 0.9327620469209563 0.0
C C 0.037774550306979626 0.7071985831657822 0.9025614186254743 0.0
C C -0.08261446298622967 0.718223960996133 0.9278922604605114 0.0
H H -0.11682446298622967 0.693493960996133 0.9651522604605114 0.0
C C 0.17246532326046665 0.26034592854651023 0.5746098130380319 0.0
H H 0.27087532326046665 0.2692159285465102 0.554869813038032 0.0
C C 0.12229861504188683 0.30176733151606705 0.6421765362370114 0.0
C C -0.021321337127863927 0.28336515412087104 0.6731158245639385 0.0
C C 0.08571529542780042 0.747224227525108 0.8526068281128059 0.0
H H 0.18620529542780045 0.7397942275251079 0.8338668281128059 0.0
C C 0.2134272184757802 0.3449999036843849 0.6775177756050705 0.0
C C -0.05215460213835316 0.32522618497297384 0.7200269563198318 0.0
C C 0.27953925703968735 0.5073425054095878 0.8266479656147279 0.0
H H 0.3350592570396873 0.5431125054095879 0.8164179656147279 0.0
C C 0.24362446647943856 0.45940634014290854 0.7631510405647616 0.0
H H 0.27193446647943853 0.4678763401429085 0.7160110405647616 0.0
C C 0.14513523448497273 0.4028634087098223 0.7986287679119087 0.0
C C 0.11680725692818401 0.41422663560537204 0.8539308796042401 0.0
H H 0.05682725692818404 0.379796635605372 0.8657908796042402 0.0
C C 0.15739038270176084 0.4442577583582231 0.9169646248654405 0.0
H H 0.12564038270176084 0.4376377583582231 0.9640446248654405 0.0
Cd Cd -0.3093782532427708 1.0600866984070165 -0.47819654705670633 0.0
O O -0.4302079788895993 0.9482771855002847 -0.5547885216861388 0.0
O O -0.20884811384147473 1.0095454508393613 -0.5680754462144443 0.0
O O -0.8697871892153805 1.274241039702052 -0.671443280350345 0.0
O O -0.40146877348823135 1.2733350720750187 -0.7625829433417695 0.0
N N -0.4682798323077144 1.1283844445444615 -0.5618656802826035 0.0
N N -0.6716988406333122 1.254990768327773 -0.707941290082437 0.0
C C -0.30884727958192215 0.954601428978404 -0.5830702548188043 0.0
C C -0.3041821772018278 0.9108966158118965 -0.6428846854643292 0.0
C C -0.13502571493645363 0.9216796915100546 -0.6849226860992056 0.0
H H -0.060115714936453644 0.9525396915100548 -0.6722826860992056 0.0
C C -0.08169875932740676 0.881428181710107 -0.7321439903405378 0.0
H H 0.01721124067259326 0.881988181710107 -0.7538039903405378 0.0
C C -0.18844134269271853 0.8381089493374608 -0.7390730613957924 0.0
C C -0.3588734590158121 0.8426337913498797 -0.7212468903102555 0.0
C C -0.36730598719744895 0.8858265186319798 -0.6717766468329682 0.0
H H -0.4649159871974491 0.8837965186319798 -0.6492466468329682 0.0
C C -0.5209769273679675 1.2848026895063072 -0.7520903290031303 0.0
C C -0.7833146115351773 1.2820591850402379 -0.7019789155780897 0.0
C C -0.5664554103631829 1.1715863145595025 -0.5550298232809407 0.0
H H -0.594865410363183 1.1688563145595023 -0.5068998232809409 0.0
C C -0.6549575262002305 1.199848832120817 -0.5861378789873455 0.0
H H -0.7257675262002307 1.2282188321208172 -0.5675978789873454 0.0
C C -0.6049241018536498 1.201329021905755 -0.6596804947453809 0.0
C C -0.46961460050131437 1.1727269810640666 -0.671571260623696 0.0
H H -0.4413046005013143 1.1728969810640666 -0.7197312606236959 0.0
C C -0.39530919629019545 1.133691398781152 -0.6294225341944878 0.0
H H -0.32181919629019545 1.1051613987811522 -0.6457825341944881 0.0
O O -0.2688703434605539 1.1366138962093344 -0.3965275876434532 0.0
O O -0.11308118982717648 1.1252482564296318 -0.48491843578838134 0.0
O O 0.14112169836375268 0.8335085333277633 -0.26766314384670364 0.0
O O -0.3416605095530119 0.8755652765062967 -0.17101748438850647 0.0
N N -0.12070526370827878 0.8743331764207318 -0.22432041152711252 0.0
N N -0.22389184398440914 0.9923873299265522 -0.38999950121771526 0.0
C C -0.15413027553508885 1.161501814315788 -0.4458257452116584 0.0
C C -0.04373677124052341 1.210363238700476 -0.40643210647833294 0.0
C C 0.09769542650771666 1.2222821939287882 -0.4361136463494945 0.0
H H 0.13190542650771664 1.1975521939287883 -0.47337364634949447 0.0
C C -0.1983213209406131 0.7771799889325489 -0.085135920592302 0.0
H H -0.2967313209406131 0.786049988932549 -0.06539592059230202 0.0
C C -0.15891272135311524 0.7965889841193547 -0.13826947656123165 0.0
C C 0.021031431185420123 0.7926580099813543 -0.1603870676690835 0.0
C C -0.11611851225826343 1.2413654890159167 -0.3480159169241484 0.0
H H -0.2166085122582634 1.2339354890159169 -0.3292759169241484 0.0
C C -0.20914318975107735 0.8576768343418382 -0.1768949008370033 0.0
C C 0.02366014863583256 0.8292324807634258 -0.23802410418406572 0.0
C C -0.261475842928515 1.0006250086135613 -0.32589171253803456 0.0
H H -0.31699584292851496 1.0363950086135616 -0.3156617125380346 0.0
C C -0.20641416949553681 0.9572089012427181 -0.2746776576296105 0.0
H H -0.23472416949553684 0.965678901242718 -0.2275376576296105 0.0
C C -0.17132553569896491 0.9114399525144451 -0.2912783595481352 0.0
C C -0.1102495248459652 0.9052051643944135 -0.34715399301678856 0.0
H H -0.05026952484596521 0.8707751643944136 -0.3590139930167886 0.0
C C -0.15555024587542798 0.9442741069063466 -0.41577081655382775 0.0
H H -0.12380024587542797 0.9376541069063467 -0.4628508165538277 0.0
Cd Cd -0.2855405392807808 -0.5483819448526147 -0.9864865901163123 0.0
O O -0.4490805616781169 -0.4676295178737948 -1.057503044957677 0.0
O O -0.1995157110270413 -0.5003035661173054 -1.0720035846607066 0.0
O O -0.9114352118637132 -0.7630213798970787 -1.1713028028714485 0.0
O O -0.4140411253652962 -0.7738577520226567 -1.2778278884368972 0.0
N N -0.42746074751763447 -0.6256403041924975 -1.0545249951069033 0.0
N N -0.6271520199394072 -0.7629108496776599 -1.2116311094124255 0.0
C C -0.3186743665776768 -0.47077290484137774 -1.0789100750685598 0.0
C C -0.27504124481301495 -0.42469074081805186 -1.1450369971956724 0.0
C C -0.10908281189646965 -0.4267719071085905 -1.1683371453820695 0.0
H H -0.03417281189646959 -0.4576319071085905 -1.1556971453820692 0.0
C C -0.0923710650571808 -0.37012935915210965 -1.2194824605796846 0.0
H H 0.006538934942819247 -0.37068935915210965 -1.2411424605796848 0.0
C C -0.22993082551221575 -0.33799485818633884 -1.2502792076960307 0.0
C C -0.381854941858167 -0.3368521347718747 -1.2107733024032783 0.0
C C -0.389502899854862 -0.37924421054192653 -1.1536173078973668 0.0
H H -0.48711289985486217 -0.37721421054192655 -1.131087307897367 0.0
C C -0.5413892960186967 -0.779577414366651 -1.2400231185398132 0.0
C C -0.7988313097141634 -0.7922262291451039 -1.208501500217854 0.0
C C -0.5325130942494702 -0.6654059490568565 -1.0297721543000515 0.0
H H -0.5609230942494703 -0.6626759490568567 -0.9816421543000518 0.0
C C -0.6036066719113384 -0.702700001287669 -1.096929583952841 0.0
H H -0.6744166719113385 -0.7310700012876689 -1.078389583952841 0.0
C C -0.5958537838421554 -0.7076216247081065 -1.1664805354586332 0.0
C C -0.4965846223576547 -0.6630760069920482 -1.1899449255879437 0.0
H H -0.46827462235765477 -0.6632460069920482 -1.238104925587944 0.0
C C -0.39398983097864376 -0.6254773379862396 -1.1406614798366876 0.0
H H -0.32049983097864376 -0.5969473379862396 -1.1570214798366878 0.0
O O -0.29482207470671334 -0.6432741088862721 -0.8966197061860951 0.0
O O -0.09066638694627911 -0.6283045418006231 -0.9739911385501925 0.0
O O 0.16414908360751457 -0.3440027436410286 -0.7723574064058929 0.0
O O -0.3363379191162764 -0.3748405430631024 -0.6874736315743692 0.0
N N -0.11027459124238528 -0.36782620418812345 -0.7326121681120906 0.0
N N -0.2433589809405384 -0.4951503841639162 -0.9093272414003691 0.0
C C -0.16049675446902745 -0.6490944771736253 -0.9490420106271953 0.0
C C -0.06232264831392559 -0.6953248573095754 -0.911463345213235 0.0
C C 0.1163557220447146 -0.7181166776685891 -0.9289721539645012 0.0
H H 0.1505657220447146 -0.6933866776685892 -0.966232153964501 0.0
C C -0.18637946543721765 -0.2569225578175511 -0.5953647843778634 0.0
H H -0.28478946543721767 -0.2657925578175511 -0.5756247843778634 0.0
C C -0.10935197325271932 -0.30852990576155725 -0.6393327593625542 0.0
C C 0.003349489727582527 -0.2955816454698902 -0.6844073104509213 0.0
C C -0.09892963459725684 -0.752636724555408 -0.8670740841289705 0.0
H H -0.19941963459725687 -0.745206724555408 -0.8483340841289705 0.0
C C -0.1957620313334545 -0.3628483918613041 -0.6894703078363957 0.0
C C 0.016793676542710904 -0.3413577395297607 -0.7376823086405025 0.0
C C -0.2726514670722359 -0.5119380044581991 -0.8269038422953446 0.0
H H -0.3281714670722359 -0.5477080044581992 -0.8166738422953447 0.0
C C -0.2376913824623444 -0.4710313916939969 -0.7618652826336257 0.0
H H -0.2660013824623444 -0.47950139169399686 -0.7147252826336259 0.0
C C -0.16988104818902303 -0.41617561779450374 -0.792644251473619 0.0
C C -0.08651502717879732 -0.39855892452686487 -0.8612805685471129 0.0
H H -0.026535027178797337 -0.36412892452686485 -0.873140568547113 0.0
C C -0.1118836732045544 -0.45471175117175805 -0.9090481870188579 0.0
H H -0.08013367320455438 -0.448091751171758 -0.9561281870188579 0.0
Cd Cd 0.3078514737783476 -1.0618695814845638 0.475630324413125 0.0
O O 0.4025109851187628 -0.9641850167105994 0.5639573450317015 0.0
O O 0.177505643868001 -1.0051242328885461 0.5823364100186161 0.0
O O 0.8801495412342983 -1.2752549810581832 0.6546339232225774 0.0
O O 0.40407464826345274 -1.2757876137506623 0.7594870830724487 0.0
N N 0.44877336675590795 -1.1181537721627208 0.5694563585970597 0.0
N N 0.6483253474450784 -1.2598606307109612 0.6930910306901211 0.0
C C 0.3127232453073531 -0.9679866814275493 0.5998120168171822 0.0
C C 0.305726088703858 -0.9163782224092459 0.6407960984799036 0.0
C C 0.1372654875048341 -0.919340816285823 0.6726652960586608 0.0
H H 0.062355487504834134 -0.9502008162858231 0.6600252960586608 0.0
C C 0.09731981541738802 -0.89052055871693 0.7342136827381354 0.0
H H -0.0015901845826120093 -0.89108055871693 0.7558736827381354 0.0
C C 0.20733181239138318 -0.8477183023043221 0.7430379220540317 0.0
C C 0.32526822144930645 -0.8357532043876352 0.7230490201611225 0.0
C C 0.3692566905161735 -0.8700281293529382 0.6744830589294831 0.0
H H 0.4668666905161736 -0.8679981293529382 0.6519530589294831 0.0
C C 0.5405854578851848 -1.274814787840737 0.7510733910971987 0.0
C C 0.7823960025042114 -1.2873582987821837 0.7082088480238867 0.0
C C 0.5757873484800373 -1.1695195184912017 0.5362811379893309 0.0
H H 0.6041973484800375 -1.1667895184912016 0.488151137989331 0.0
C C 0.6479864995636906 -1.201689554509035 0.5829986460627361 0.0
H H 0.7187964995636907 -1.2300595545090351 0.564458646062736 0.0
C C 0.5826140731970435 -1.2109742406783988 0.6636500333369495 0.0
C C 0.4776607504995503 -1.1786211327596765 0.6666125099277052 0.0
H H 0.4493507504995503 -1.1787911327596765 0.714772509927705 0.0
C C 0.43112835294454915 -1.1293001525270387 0.6384745376820992 0.0
H H 0.3576383529445491 -1.1007701525270388 0.6548345376820993 0.0
O O 0.2924201548821804 -1.1353345963337964 0.4123189903252184 0.0
O O 0.06838121860400816 -1.1329512586442145 0.49159058514803045 0.0
O O -0.16843034591709832 -0.8365873903188075 0.27131726384268584 0.0
O O 0.3410511677567329 -0.8747419265852813 0.17289267518194906 0.0
N N 0.09132742175182013 -0.8645897951335239 0.23928311527142587 0.0
N N 0.24910042431752827 -0.9855543752378821 0.4060733968083459 0.0
C C 0.16885365705913147 -1.1532788147143322 0.44005674427750463 0.0
C C 0.0472815184120962 -1.1949155883939688 0.40315009313487704 0.0
C C -0.11266023362001211 -1.2208834908672295 0.4230325864226821 0.0
H H -0.1468702336200121 -1.1961534908672296 0.4602925864226821 0.0
C C 0.22224028164332738 -0.7618310886845492 0.08560100923504889 0.0
H H 0.3206502816433274 -0.7707010886845492 0.06586100923504891 0.0
C C 0.16590673601284822 -0.792452676451582 0.1453414525850659 0.0
C C -0.029509120673862053 -0.7818182161515034 0.17127320001463361 0.0
C C 0.08773472354317165 -1.2425357291588905 0.36107881649949897 0.0
H H 0.18822472354317166 -1.2351057291588907 0.342338816499499 0.0
C C 0.2070438983492267 -0.8489476017412777 0.18468563168357724 0.0
C C -0.0433286108169598 -0.8356667648932788 0.23235307836078187 0.0
C C 0.2535655365169977 -1.0059414946563519 0.31611506520933663 0.0
H H 0.30908553651699766 -1.041711494656352 0.3058850652093367 0.0
C C 0.20925862658848754 -0.9705136572554194 0.2605055064056491 0.0
H H 0.23756862658848757 -0.9789836572554194 0.2133655064056491 0.0
C C 0.13424949684225407 -0.901426992952617 0.28496942905032974 0.0
C C 0.11437328412332716 -0.9004910372672026 0.35806857645347046 0.0
H H 0.054393284123327154 -0.8660610372672026 0.36992857645347044 0.0
C C 0.1353400193711939 -0.9450490281707377 0.40920231700167253 0.0
H H 0.10359001937119389 -0.9384290281707376 0.45628231700167254 0.0
