_cell_length_a 8.39304
_cell_length_b 22.23511
_cell_length_c 18.74218
_cell_angle_alpha 90.0
_cell_angle_beta 94.0312
_cell_angle_gamma 90.0
_symmetry_space_group_name_H-M         'P 1'
_symmetry_Int_Tables_number            1
loop_
_symmetry_equiv_pos_as_xyz
   'x, y, z'
                         
loop_
_atom_site_label
_atom_site_type_symbol
_atom_site_fract_x 
_atom_site_fract_y
_atom_site_fract_z
_atom_site_charge
Cd Cd 0.31914761815714626 0.5526568323246509 0.9900726305419839 0.0
O O 0.46820103144775443 0.4708296977144738 1.06322764404988 0.0
O O 0.19143834105280175 0.49322528757238404 1.073497808555178 0.0
O O 0.8876171880025074 0.764486906507298 1.1650585486959266 0.0
O O 0.42919969580478773 0.7848393578575236 1.2720438101443574 0.0
N N 0.44422766399235714 0.6124358150359088 1.0477642980621855 0.0
N N 0.6697128360932815 0.7584089150976172 1.2149340854340756 0.0
C C 0.3255801935664049 0.47196314336829714 1.1040461540966862 0.0
C C 0.28311747862288045 0.4085699417222549 1.139506380877507 0.0
C C 0.1416297654907014 0.43301256532720733 1.1964133625513158 0.0
H H 0.06671976549070137 0.46387256532720733 1.1837733625513158 0.0
C C 0.1083864427187894 0.37603576198940486 1.2222574035398885 0.0
H H 0.009476442718789373 0.37659576198940486 1.2439174035398888 0.0
C C 0.19234676363841385 0.3346023709292743 1.2646840828576424 0.0
C C 0.33243028916695805 0.33906576106594666 1.230825964432538 0.0
C C 0.4086271464067499 0.37607146136465663 1.166181008591043 0.0
H H 0.50623714640675 0.37404146136465666 1.143651008591043 0.0
C C 0.5381424618913216 0.7790320301877874 1.2552722064689499 0.0
C C 0.7959142075252711 0.7870260011961515 1.182089489608329 0.0
C C 0.5817800093743221 0.6560019416081669 1.0358314995662117 0.0
H H 0.6101900093743221 0.653271941608167 0.9877014995662118 0.0
C C 0.619652065565795 0.7195553970409422 1.0942432755757643 0.0
H H 0.6904620655657949 0.747925397040942 1.0757032755757643 0.0
C C 0.5877436140297292 0.7020707976230784 1.1453058260612334 0.0
C C 0.4656463714713213 0.6614053710723334 1.169550963231256 0.0
H H 0.4373363714713214 0.6615753710723334 1.217710963231256 0.0
C C 0.38636756593001664 0.618626972301749 1.1290641447054384 0.0
H H 0.31287756593001664 0.590096972301749 1.1454241447054385 0.0
O O 0.27947341302945605 0.6426733303221935 0.9142982389760442 0.0
O O 0.07563498406371227 0.6236050954099746 0.9832159577879265 0.0
O O -0.1649650400576948 0.34081947335619206 0.7624345793517712 0.0
O O 0.3512682766285748 0.37383798811870783 0.6573043360981877 0.0
N N 0.09242125891633592 0.36936368362126293 0.7450467779162465 0.0
N N 0.24786320937502548 0.4870705729807147 0.893908241895289 0.0
C C 0.11144863051505961 0.6470285038743295 0.9454099068291958 0.0
C C 0.07542283980102878 0.705677291995975 0.9079391205173885 0.0
C C -0.1157023932910532 0.7068692169611409 0.9303948251319013 0.0
H H -0.14991239329105327 0.682139216961141 0.9676548251319013 0.0
C C 0.18879602862944178 0.25754124375878884 0.5849711374840179 0.0
H H 0.2872060286294418 0.2664112437587889 0.5652311374840179 0.0
C C 0.1194634660586338 0.2878876688302597 0.6469553138224633 0.0
C C -0.04114659110716196 0.2886928336911818 0.6832042073576388 0.0
C C 0.10533065707335586 0.7512079714971649 0.8446281351959948 0.0
H H 0.2058206570733559 0.7437779714971648 0.8258881351959949 0.0
C C 0.25082034818491605 0.35827458321505834 0.6812822091078073 0.0
C C -0.04706866271137004 0.3368467302122697 0.7209731490626172 0.0
C C 0.2746316607413912 0.5035220030138187 0.8257761116753438 0.0
H H 0.3301516607413912 0.5392920030138187 0.8155461116753437 0.0
C C 0.2461015264036415 0.47240132370405374 0.7723440604216395 0.0
H H 0.2744115264036415 0.4808713237040537 0.7252040604216395 0.0
C C 0.12794082082805988 0.40935428583996364 0.7751477138592089 0.0
C C 0.0916190938173192 0.40722232744354786 0.8530866552915203 0.0
H H 0.031639093817319185 0.37279232744354784 0.8649466552915203 0.0
C C 0.1791582167639404 0.4591706263501249 0.9125414676429306 0.0
H H 0.1474082167639404 0.45255062635012483 0.9596214676429307 0.0
Cd Cd -0.3438074720032874 1.048296666775464 -0.4995821401121467 0.0
O O -0.42782411632816547 0.9609410909171284 -0.5584790644721118 0.0
O O -0.17428379036503416 1.0017772947392958 -0.574981556662645 0.0
O O -0.9167484317804849 1.2589792544375986 -0.6663325865804209 0.0
O O -0.41449437291062124 1.265645845616192 -0.7522710639341577 0.0
N N -0.4908846992766836 1.1107131969485708 -0.575766842057024 0.0
N N -0.6168661831403122 1.2594485984398551 -0.6933135871212016 0.0
C C -0.3107039781532632 0.9665213219661185 -0.599120253944145 0.0
C C -0.3081015159418289 0.9066269568720866 -0.64664155879715 0.0
C C -0.14012761917487393 0.9302986551262105 -0.6750873481796553 0.0
H H -0.06521761917487393 0.9611586551262106 -0.6624473481796553 0.0
C C -0.06951287238851128 0.8762105579105391 -0.723886373046547 0.0
H H 0.029397127611488758 0.8767705579105392 -0.745546373046547 0.0
C C -0.21569699947171406 0.8364118103925396 -0.7509749153895564 0.0
C C -0.33849711177631314 0.8285023560798604 -0.7339069199619875 0.0
C C -0.3570556488912632 0.8822461807372685 -0.6481879086844019 0.0
H H -0.45466564889126326 0.8802161807372685 -0.625657908684402 0.0
C C -0.5481872918304245 1.2897282679036768 -0.7557448211544472 0.0
C C -0.7785089680412847 1.2830796779364928 -0.7138479989909233 0.0
C C -0.5314742889309648 1.1672383695386856 -0.5366909291116937 0.0
H H -0.5598842889309649 1.1645083695386855 -0.4885609291116938 0.0
C C -0.6019322241974602 1.2193031324729549 -0.5749451747665838 0.0
H H -0.6727422241974603 1.247673132472955 -0.5564051747665838 0.0
C C -0.5519092481233743 1.2130614746404478 -0.6647052273605207 0.0
C C -0.4640413354882912 1.158972177552151 -0.686419735501067 0.0
H H -0.4357313354882912 1.159142177552151 -0.734579735501067 0.0
C C -0.4107278890672113 1.1298887822390389 -0.6190277752176403 0.0
H H -0.33723788906721125 1.101358782239039 -0.6353877752176404 0.0
O O -0.26361246094700214 1.1448450285920324 -0.39131984468597 0.0
O O -0.09181682349939009 1.1355024439276964 -0.48624441945411656 0.0
O O 0.12934852467967003 0.8261188847869341 -0.26160451316472066 0.0
O O -0.35954719357368303 0.8746147659935493 -0.1800631604968694 0.0
N N -0.11044923969982179 0.859440940928397 -0.24577239690454789 0.0
N N -0.21579514621189172 1.0029995023429374 -0.38260062442208886 0.0
C C -0.15013414629047575 1.1577674494591432 -0.4375103483954403 0.0
C C -0.04494771509548431 1.2002917835643663 -0.3975847152031471 0.0
C C 0.07830970571097821 1.2156120960597994 -0.44190988287737487 0.0
H H 0.1125197057109782 1.1908820960597994 -0.4791698828773749 0.0
C C -0.19833138647429902 0.7610473501334729 -0.084993670464987 0.0
H H -0.2967413864742991 0.769917350133473 -0.06525367046498703 0.0
C C -0.13328827097124266 0.8035783330662547 -0.16104983566933154 0.0
C C 0.03806343120293363 0.7925416328981163 -0.1645669312864472 0.0
C C -0.07119156581993119 1.2456544006160506 -0.3629144095624803 0.0
H H -0.17168156581993116 1.2382244006160508 -0.3441744095624803 0.0
C C -0.21292884139679202 0.8462508054423934 -0.20064471215991614 0.0
C C 0.025995386216033454 0.8244134478926258 -0.2378997212443 0.0
C C -0.2818374748091983 1.001536525110037 -0.3177722632640792 0.0
H H -0.3373574748091983 1.037306525110037 -0.3075422632640793 0.0
C C -0.262010480680591 0.9550217864468712 -0.28127761372718696 0.0
H H -0.2903204806805911 0.9634917864468712 -0.23413761372718697 0.0
C C -0.15386119397947962 0.914021636685253 -0.281266052853126 0.0
C C -0.09903436854847983 0.9139854313994068 -0.34239757825424666 0.0
H H -0.03905436854847984 0.879555431399407 -0.3542575782542467 0.0
C C -0.10946590906056096 0.9428871340204598 -0.4049079661146563 0.0
H H -0.07771590906056096 0.9362671340204597 -0.4519879661146563 0.0
Cd Cd -0.3167476473347098 -0.5567179021175978 -0.9777693032285637 0.0
O O -0.40097882293110076 -0.4567499238713132 -1.0703751957093708 0.0
O O -0.23069916633748266 -0.5114235026678977 -1.0894900164840904 0.0
O O -0.8635032579639775 -0.7693962257790145 -1.1620947001606032 0.0
O O -0.39677347764522675 -0.7805183074569177 -1.2709746025350057 0.0
N N -0.4547964403684011 -0.6282197619949283 -1.061860202629638 0.0
N N -0.6344621800515019 -0.7548933107096655 -1.2139537484969085 0.0
C C -0.3337375407076923 -0.4656795206662995 -1.0751807070521617 0.0
C C -0.2552413906132447 -0.4158464687470931 -1.148092899096978 0.0
C C -0.15580870757870138 -0.41798944085136847 -1.1785289925875737 0.0
H H -0.08089870757870135 -0.4488494408513685 -1.1658889925875735 0.0
C C -0.07648327264249519 -0.3891251315683054 -1.2308283156137088 0.0
H H 0.02242672735750483 -0.3896851315683054 -1.2524883156137088 0.0
C C -0.20471771657159318 -0.33640268084684555 -1.2384285543617333 0.0
C C -0.3246799942168903 -0.33241426414686714 -1.2244779870713758 0.0
C C -0.37362325427095927 -0.3760821377644561 -1.1624321577585883 0.0
H H -0.47123325427095936 -0.37405213776445606 -1.1399021577585884 0.0
C C -0.5342606340520065 -0.7802520577197458 -1.2350369375885784 0.0
C C -0.8250226459017976 -0.7939040629146623 -1.1980675962944398 0.0
C C -0.523917359259605 -0.6575299376002544 -1.0306140420904264 0.0
H H -0.5523273592596051 -0.6547999376002546 -0.9824840420904266 0.0
C C -0.6463632168984473 -0.7123657647564537 -1.077781381382738 0.0
H H -0.7171732168984473 -0.7407357647564536 -1.059241381382738 0.0
C C -0.5602613010693823 -0.712479256940663 -1.1440081094359456 0.0
C C -0.4571510086825652 -0.670266129012503 -1.1911278842316182 0.0
H H -0.42884100868256525 -0.670436129012503 -1.2392878842316184 0.0
C C -0.4122993502710186 -0.6173260050226259 -1.1402428163082163 0.0
H H -0.3388093502710186 -0.5887960050226259 -1.1566028163082163 0.0
O O -0.2834663990819445 -0.6407075790722919 -0.907100491745643 0.0
O O -0.11852731879270709 -0.6226013213885278 -0.9913466213127372 0.0
O O 0.1675691346085544 -0.3372010811858835 -0.7696017214278983 0.0
O O -0.3614719453833931 -0.37521902966591303 -0.6809416979093277 0.0
N N -0.12558065961798212 -0.3574838453775309 -0.7261437907674687 0.0
N N -0.23642088714157375 -0.49628269039874706 -0.891922575494676 0.0
C C -0.17912058319755114 -0.6536379261588783 -0.932688011918517 0.0
C C -0.046228712343432475 -0.6965507883846065 -0.9151811526614191 0.0
C C 0.10620775638014099 -0.7085392887480344 -0.9416622860561943 0.0
H H 0.140417756380141 -0.6838092887480345 -0.9789222860561941 0.0
C C -0.21717538307052123 -0.26283866122849503 -0.5802177541493907 0.0
H H -0.31558538307052125 -0.271708661228495 -0.5604777541493907 0.0
C C -0.1333700063227022 -0.3096531403864454 -0.6517876896786894 0.0
C C -0.01922153283964446 -0.3008573251961222 -0.6740921249611419 0.0
C C -0.0748956589131797 -0.7470304802737185 -0.8550773616850279 0.0
H H -0.17538565891317973 -0.7396004802737186 -0.8363373616850279 0.0
C C -0.211738937646691 -0.35783178319861136 -0.6997650654815772 0.0
C C -0.006613317094233201 -0.3283277423538833 -0.7252939013276527 0.0
C C -0.2441926991557673 -0.49196509348532746 -0.8339200238462211 0.0
H H -0.2997126991557673 -0.5277350934853277 -0.8236900238462211 0.0
C C -0.1969878704231864 -0.46717805524255773 -0.7708983516309865 0.0
H H -0.22529787042318639 -0.4756480552425577 -0.7237583516309866 0.0
C C -0.14991286174195498 -0.4188739879363167 -0.8058204996834146 0.0
C C -0.0885628650301155 -0.4124961007717718 -0.8633204829994859 0.0
H H -0.028582865030115527 -0.37806610077177183 -0.875180482999486 0.0
C C -0.11529523080266676 -0.4501007336752428 -0.9141488030272168 0.0
H H -0.08354523080266675 -0.4434807336752427 -0.9612288030272168 0.0
Cd Cd 0.2831428593914009 -1.0680146062201736 0.4780971511660593 0.0
O O 0.40097666458381703 -0.9609426275240199 0.543371907913083 0.0
O O 0.18697145418247899 -0.9973910096681832 0.5785552785035339 0.0
O O 0.9322414614549528 -1.2676456637364009 0.6627177114853167 0.0
O O 0.425665458310417 -1.2727616435326594 0.774899306015044 0.0
N N 0.4735668030937003 -1.112919371942022 0.5738156709687282 0.0
N N 0.6590677084799276 -1.267349360275292 0.6970368273375493 0.0
C C 0.29973534850543015 -0.9702941171572136 0.5751906722127664 0.0
C C 0.2583647903415249 -0.9177794818478486 0.6589722031251317 0.0
C C 0.15124549143985216 -0.9141990013085154 0.6838569252821692 0.0
H H 0.07633549143985216 -0.9450590013085156 0.6712169252821693 0.0
C C 0.10317403846632736 -0.8719192232169041 0.7447396565105234 0.0
H H 0.004264038466327334 -0.8724792232169041 0.7663996565105234 0.0
C C 0.2349757758826829 -0.8323931052366518 0.7559590146195314 0.0
C C 0.3386985523798378 -0.8397474368528133 0.7294301230235646 0.0
C C 0.3617374953667626 -0.8796638069810438 0.6552619003444016 0.0
H H 0.45934749536676267 -0.8776338069810439 0.6327319003444016 0.0
C C 0.5251920997924242 -1.2863420722522134 0.7480845647862315 0.0
C C 0.7905213279247199 -1.2912810503150742 0.6838513433561503 0.0
C C 0.5644946933843965 -1.1502108377220321 0.5400936837368095 0.0
H H 0.5929046933843967 -1.147480837722032 0.4919636837368096 0.0
C C 0.5888207281518751 -1.2148118758070994 0.575826937989386 0.0
H H 0.6596307281518752 -1.2431818758070994 0.5572869379893859 0.0
C C 0.5478762336091548 -1.2105761496374219 0.6663059168708935 0.0
C C 0.46799832547907616 -1.16610583453315 0.6896196799378268 0.0
H H 0.4396883254790761 -1.1662758345331503 0.7377796799378268 0.0
C C 0.4538486855884247 -1.1155260463915229 0.6459428942053728 0.0
H H 0.38035868558842467 -1.086996046391523 0.6623028942053729 0.0
O O 0.31011622536920996 -1.1280447117401229 0.41032825866375605 0.0
O O 0.09583823453571372 -1.1255446391107835 0.4803414522817681 0.0
O O -0.15582156762870913 -0.8406944484329358 0.2592251796279597 0.0
O O 0.3591405601957365 -0.8698879913179156 0.16625909588769924 0.0
N N 0.10109796969934584 -0.8662980693761685 0.22639055547196596 0.0
N N 0.23996982845961637 -1.0022981125571298 0.3966361284667705 0.0
C C 0.1381210190598148 -1.1524023748918055 0.44192392179064405 0.0
C C 0.02054836631429803 -1.2106492088841614 0.4184215252692931 0.0
C C -0.06517676816087295 -1.2149860114521893 0.42890741340810595 0.0
H H -0.09938676816087291 -1.1902560114521894 0.46616741340810597 0.0
C C 0.21688818582873357 -0.7669275994227264 0.07389766459535688 0.0
H H 0.3152981858287336 -0.7757975994227264 0.054157664595356904 0.0
C C 0.11961111922232492 -0.8085111685036964 0.1432708120781231 0.0
C C 0.01817180225668158 -0.7907149187650812 0.1779690368017135 0.0
C C 0.11125171423745861 -1.2372066970123285 0.35356907978446067 0.0
H H 0.2117417142374586 -1.2297766970123287 0.3348290797844607 0.0
C C 0.245631247079392 -0.8561040881081947 0.1780517206461827 0.0
C C -0.040720103325869075 -0.8317163081411849 0.24501083466688434 0.0
C C 0.2594295269367888 -1.0066715710678054 0.3344674073041115 0.0
H H 0.31494952693678874 -1.0424415710678054 0.3242374073041116 0.0
C C 0.201440053329828 -0.9631586714239516 0.27561875462027424 0.0
H H 0.22975005332982804 -0.9716286714239516 0.22847875462027423 0.0
C C 0.11661233048724928 -0.9156254372117905 0.27963927795591986 0.0
C C 0.0754387949055416 -0.8980922054997154 0.36293943377029453 0.0
H H 0.015458794905541607 -0.8636622054997155 0.37479943377029457 0.0
C C 0.1674783225549267 -0.9457839715728962 0.4209252449887405 0.0
H H 0.13572832255492667 -0.9391639715728961 0.4680052449887404 0.0
