_cell_length_a 8.39304
_cell_length_b 22.23511
_cell_length_c 18.74218
_cell_angle_alpha 90.0
_cell_angle_beta 94.0312
_cell_angle_gamma 90.0
_symmetry_space_group_name_H-M         'P 1'
_symmetry_Int_Tables_number            1
loop_
_symmetry_equiv_pos_as_xyz
   'x, y, z'
                         
loop_
_atom_site_label
_atom_site_type_symbol
_atom_site_fract_x 
_atom_site_fract_y
_atom_site_fract_z
_atom_site_charge
Cd Cd 0.33683132128787585 0.5551097870247513 1.0048259530272983 0.0
O O 0.4535743438933209 0.4538499978660326 1.0454312074603394 0.0
O O 0.20519858237555821 0.5041459814701947 1.0670535052420955 0.0
O O 0.8507371696247576 0.7796168337614418 1.1428973134831488 0.0
O O 0.42055355735275074 0.7805495055446583 1.2759050473315223 0.0
N N 0.489267413233286 0.6107352576327943 1.0679625867953273 0.0
N N 0.6666093520782896 0.7471181485603491 1.2148652460793927 0.0
C C 0.3397130613467537 0.45521754967831324 1.10448222296834 0.0
C C 0.30123559228194846 0.41972925510843573 1.133150005918429 0.0
C C 0.1297415134051004 0.41987709342523033 1.1607534533271986 0.0
H H 0.054831513405100354 0.45073709342523033 1.1481134533271984 0.0
C C 0.09350754196742012 0.3946656445786339 1.2387012783705114 0.0
H H -0.005402458032579897 0.3952256445786339 1.2603612783705114 0.0
C C 0.211682712894712 0.3369064851833204 1.2473762727135023 0.0
C C 0.3660230342659779 0.3453518796951127 1.20403217372767 0.0
C C 0.40773731161215376 0.37953548877673565 1.181052950376475 0.0
H H 0.5053473116121538 0.3775054887767357 1.1585229503764751 0.0
C C 0.5394589307931648 0.770449397005039 1.248503450269318 0.0
C C 0.7475918286009285 0.7841556554454682 1.193435816358692 0.0
C C 0.565016318921197 0.6489012725124093 1.0607835953706652 0.0
H H 0.593426318921197 0.6461712725124094 1.0126535953706652 0.0
C C 0.6098059663718541 0.7029791564958615 1.072914759627364 0.0
H H 0.6806159663718543 0.7313491564958613 1.054374759627364 0.0
C C 0.5749631056260415 0.710310022295529 1.1441291914961342 0.0
C C 0.47472227219520946 0.6833479686557026 1.175236402567637 0.0
H H 0.4464122721952095 0.6835179686557026 1.223396402567637 0.0
C C 0.3927846295460818 0.635135355537119 1.1189912269026605 0.0
H H 0.3192946295460818 0.606605355537119 1.1353512269026604 0.0
O O 0.2563629657297047 0.6434582647464515 0.8919958785812299 0.0
O O 0.11067312368695498 0.6078065069087663 0.9927234890765694 0.0
O O -0.15852629580501812 0.3533713581991534 0.7505639881236584 0.0
O O 0.32666952086789425 0.3806049154586628 0.6629512817643196 0.0
N N 0.06850146480423722 0.37719692049799186 0.7319130068371129 0.0
N N 0.24395877149164458 0.4984189932178109 0.8885740960887958 0.0
C C 0.15161009528146113 0.6461100792117476 0.9307711551155539 0.0
C C 0.022049274066913153 0.7206541942502525 0.9105130230698436 0.0
C C -0.09282342057982819 0.7072311979595516 0.936531811738322 0.0
H H -0.12703342057982822 0.6825011979595517 0.973791811738322 0.0
C C 0.21797558082152818 0.25861915149334763 0.5839447791925787 0.0
H H 0.3163855808215282 0.2674891514933476 0.5642047791925787 0.0
C C 0.15505593539038223 0.29191093811350516 0.6585199574023433 0.0
C C 0.021091716575482915 0.2830874639847423 0.6694069787135337 0.0
C C 0.06304852610958182 0.7531267863708462 0.8515669930099433 0.0
H H 0.16353852610958186 0.7456967863708461 0.8328269930099435 0.0
C C 0.24740243310044996 0.36131613020537634 0.6921093238861692 0.0
C C -0.01271523688887308 0.3291755366806429 0.7482716490231424 0.0
C C 0.2790371763941335 0.5089402629523953 0.8399742741678389 0.0
H H 0.33455717639413346 0.5447102629523953 0.8297442741678388 0.0
C C 0.2644688556738793 0.45692156559098057 0.7878702466796328 0.0
H H 0.2927788556738793 0.46539156559098055 0.7407302466796328 0.0
C C 0.15821591967519893 0.42292238414438954 0.7880341543335667 0.0
C C 0.13043433080380287 0.40182680811642757 0.8617349621787628 0.0
H H 0.07045433080380288 0.3673968081164276 0.873594962178763 0.0
C C 0.14820000659988775 0.43860205891813375 0.9168983233872708 0.0
H H 0.11645000659988773 0.4319820589181337 0.9639783233872709 0.0
Cd Cd -0.30989115144685286 1.0513900333253856 -0.4967139093043513 0.0
O O -0.40838846794536315 0.9589363637948941 -0.5710336763868892 0.0
O O -0.2498423689979407 1.0138869026525095 -0.5813365691228323 0.0
O O -0.9076877832117813 1.2660244546142094 -0.6527482160918733 0.0
O O -0.4334702267790404 1.2690709608717898 -0.7571702553804257 0.0
N N -0.4578200512647632 1.1232190952843717 -0.5512134430080532 0.0
N N -0.6297001676338829 1.253013403070735 -0.6961506805125325 0.0
C C -0.2840151738064203 0.9624139827042882 -0.6002377811026889 0.0
C C -0.2356024291443699 0.9142883399169757 -0.6314599723190316 0.0
C C -0.14306884157795643 0.916625295463808 -0.6806731080811246 0.0
H H -0.06815884157795644 0.9474852954638082 -0.6680331080811246 0.0
C C -0.06720323624195243 0.8798769907424275 -0.7406139062696029 0.0
H H 0.031706763758047596 0.8804369907424275 -0.7622739062696028 0.0
C C -0.21906825985063227 0.833599104121341 -0.7678115324437633 0.0
C C -0.3866105983677748 0.847220167995539 -0.7150427554763359 0.0
C C -0.40431732532540976 0.8905273335592111 -0.6659876505010209 0.0
H H -0.5019273253254098 0.8884973335592111 -0.6434576505010209 0.0
C C -0.555438128878988 1.290295735986394 -0.7535397744749974 0.0
C C -0.7461244631557287 1.2884469318432523 -0.6854187089481683 0.0
C C -0.5951169253476316 1.1629710507995399 -0.5538237322924856 0.0
H H -0.6235269253476318 1.1602410507995398 -0.5056937322924857 0.0
C C -0.6318935679405204 1.221345380178778 -0.5949506492970406 0.0
H H -0.7027035679405206 1.249715380178778 -0.5764106492970404 0.0
C C -0.5458970458292441 1.2141190009521137 -0.6565967967553802 0.0
C C -0.43547923959316936 1.1650674077534908 -0.6660462263937079 0.0
H H -0.4071692395931693 1.1652374077534908 -0.7142062263937079 0.0
C C -0.3831078250141603 1.119019083362763 -0.6163917418938877 0.0
H H -0.30961782501416024 1.090489083362763 -0.6327517418938879 0.0
O O -0.24155962890881927 1.147182402266237 -0.4222304307350173 0.0
O O -0.0679788837899832 1.1367137556098954 -0.49552307481015656 0.0
O O 0.16614407765870073 0.8510217581467255 -0.2696527986277455 0.0
O O -0.3051899540359257 0.8708601167951503 -0.16747678275126016 0.0
N N -0.12355886736485748 0.8621047521953161 -0.22646672514622426 0.0
N N -0.2536600896032374 0.9972130983307104 -0.38998904844386517 0.0
C C -0.12516991211268091 1.1444105400744553 -0.4385325030538659 0.0
C C -0.08163437229094461 1.2120941002668137 -0.42689018377293303 0.0
C C 0.09469275641213377 1.2172375794757035 -0.43814330005366997 0.0
H H 0.12890275641213378 1.1925075794757036 -0.47540330005366993 0.0
C C -0.23383480413261803 0.757409732625899 -0.0926313146653193 0.0
H H -0.33224480413261803 0.766279732625899 -0.07289131466531933 0.0
C C -0.11923367843046953 0.8079498255750934 -0.14016145080694203 0.0
C C -0.004986568144705918 0.791432815790382 -0.1756421649501924 0.0
C C -0.10723267486547762 1.2394892482461155 -0.35518919856147896 0.0
H H -0.20772267486547763 1.2320592482461157 -0.336449198561479 0.0
C C -0.18674521666583163 0.8573061627902994 -0.1686987928426412 0.0
C C 0.04248176808820666 0.8243594374424553 -0.2220359770023902 0.0
C C -0.26986540601171566 1.0198792815112179 -0.34392182149146455 0.0
H H -0.3253854060117157 1.055649281511218 -0.3336918214914646 0.0
C C -0.23768496192908936 0.9613093995900853 -0.2559000865174162 0.0
H H -0.26599496192908934 0.9697793995900853 -0.2087600865174162 0.0
C C -0.13980323951052415 0.9180851254380172 -0.2712680110304255 0.0
C C -0.07586553938950309 0.9090410283260347 -0.359372689735294 0.0
H H -0.015885539389503097 0.8746110283260349 -0.371232689735294 0.0
C C -0.12617510532999873 0.9380980426176516 -0.3958385180015679 0.0
H H -0.09442510532999872 0.9314780426176517 -0.44291851800156784 0.0
Cd Cd -0.3405341428900302 -0.5467225782379013 -0.9815260876676353 0.0
O O -0.45867752619570173 -0.4471938743884329 -1.0747701928923858 0.0
O O -0.1827689460768275 -0.4916158425110883 -1.0796655972651579 0.0
O O -0.8557517651113544 -0.7800706159245543 -1.1615188159859349 0.0
O O -0.41231047749743927 -0.7752060634955359 -1.2774048845917987 0.0
N N -0.48557017534729036 -0.6244584434347518 -1.0557537797162901 0.0
N N -0.6362395143740368 -0.7500075705585046 -1.1988741907894833 0.0
C C -0.3080755596338956 -0.4790921056800879 -1.074959454783752 0.0
C C -0.2885870156289141 -0.4341357515879157 -1.1504275617903819 0.0
C C -0.13949141834737033 -0.4292713844445126 -1.1802348764183523 0.0
H H -0.0645814183473703 -0.4601313844445127 -1.1675948764183524 0.0
C C -0.07092458067063571 -0.37805988943784397 -1.22040256009528 0.0
H H 0.027985419329364287 -0.37861988943784397 -1.24206256009528 0.0
C C -0.233970271199487 -0.3444013646798346 -1.2315867679371129 0.0
C C -0.36932110627330683 -0.3423061326263461 -1.2135127397661027 0.0
C C -0.3781269861160995 -0.3892575460283421 -1.152328777285343 0.0
H H -0.47573698611609966 -0.38722754602834214 -1.129798777285343 0.0
C C -0.5827527021230618 -0.7878534436880335 -1.2533987463877023 0.0
C C -0.7911032967835335 -0.7971322605740692 -1.1933170509949467 0.0
C C -0.5851116325236406 -0.666234595845946 -1.0303427952918525 0.0
H H -0.6135216325236407 -0.6635045958459462 -0.9822127952918527 0.0
C C -0.6005734790984306 -0.708391297118026 -1.0764790793061296 0.0
H H -0.6713834790984305 -0.7367612971180257 -1.0579390793061296 0.0
C C -0.578036020501393 -0.7146488994292874 -1.14766193251904 0.0
C C -0.5156567806781497 -0.6715531126978649 -1.189010164384928 0.0
H H -0.4873467806781498 -0.6717231126978649 -1.2371701643849282 0.0
C C -0.42135028034208044 -0.6136057741022048 -1.1332312971421425 0.0
H H -0.34786028034208044 -0.5850757741022049 -1.1495912971421425 0.0
O O -0.2332576716842085 -0.6372547864161184 -0.8954019036323311 0.0
O O -0.12043027669203094 -0.6148248413488587 -0.9976521528210345 0.0
O O 0.18060577897556648 -0.34930052176968396 -0.7574421237457359 0.0
O O -0.33733864980836664 -0.38695720602510625 -0.6693153142769873 0.0
N N -0.09602095560830193 -0.3645763178480219 -0.7380807770876063 0.0
N N -0.2393949657994594 -0.4812867454114904 -0.9156505460113246 0.0
C C -0.1121220696358598 -0.6607330581947215 -0.9290446989391759 0.0
C C -0.06573454260335988 -0.7076044244087508 -0.9161677485785614 0.0
C C 0.11650326758420729 -0.7128968444662428 -0.9400640202190184 0.0
H H 0.1507132675842073 -0.6881668444662429 -0.9773240202190183 0.0
C C -0.22571018847439034 -0.26039242018957603 -0.5819680912639464 0.0
H H -0.32412018847439034 -0.269262420189576 -0.5622280912639465 0.0
C C -0.1261550022441051 -0.30897792995296053 -0.6517432600798592 0.0
C C 0.015478310843592623 -0.30256888184606634 -0.6704531029325913 0.0
C C -0.07562129948144715 -0.7318092506928786 -0.8511310062156293 0.0
H H -0.1761112994814472 -0.7243792506928787 -0.8323910062156293 0.0
C C -0.17995263175310328 -0.34989415661875267 -0.6774425507363196 0.0
C C 0.0704439246143895 -0.3291486640307353 -0.7253540736629905 0.0
C C -0.26749366316657797 -0.5031063606548429 -0.8165456202720768 0.0
H H -0.3230136631665779 -0.538876360654843 -0.8063156202720767 0.0
C C -0.2176128204983986 -0.46498766729559293 -0.7822679475824759 0.0
H H -0.24592282049839864 -0.4734576672955929 -0.7351279475824759 0.0
C C -0.11993054205926071 -0.41006906135056415 -0.8008777321558677 0.0
C C -0.09209243746377771 -0.38794719581835274 -0.8770029195414599 0.0
H H -0.03211243746377774 -0.3535171958183527 -0.8888629195414601 0.0
C C -0.10724647941273056 -0.4376606568438079 -0.9041234360988487 0.0
H H -0.07549647941273055 -0.4310406568438078 -0.9512034360988487 0.0
Cd Cd 0.2820189890162727 -1.0590958422758996 0.49107419194455365 0.0
O O 0.4144366997231287 -0.9712426330980809 0.5725248554477704 0.0
O O 0.20747814297273087 -1.0099278905550473 0.5769804617645287 0.0
O O 0.8844419810714669 -1.2738449092152826 0.6492856598833087 0.0
O O 0.4323911351574216 -1.2816725286133903 0.7764396886502964 0.0
N N 0.43145356454362926 -1.1229622484791433 0.5541231550241155 0.0
N N 0.6629351484122313 -1.2444701753159988 0.69271177349352 0.0
C C 0.26971310106036067 -0.9599005458653714 0.5753621132884531 0.0
C C 0.2674497254020293 -0.9201924760604165 0.6368115510064754 0.0
C C 0.1511629516070165 -0.9281735197002084 0.667654549409484 0.0
H H 0.07625295160701653 -0.9590335197002086 0.655014549409484 0.0
C C 0.060373527767868335 -0.8667000578277566 0.7221258777754456 0.0
H H -0.038536472232131684 -0.8672600578277566 0.7437858777754455 0.0
C C 0.2083233340490496 -0.8300734520776575 0.7456653155864656 0.0
C C 0.33958743523585233 -0.843473707590104 0.7127997417395737 0.0
C C 0.3765565587287533 -0.8874739954324986 0.6692902301239311 0.0
H H 0.4741665587287534 -0.8854439954324986 0.646760230123931 0.0
C C 0.5654527531041292 -1.286849211610259 0.7577567137627226 0.0
C C 0.8235378454803512 -1.2936030464144814 0.6983708955358274 0.0
C C 0.575540975012858 -1.174102305845099 0.5482243060621854 0.0
H H 0.603950975012858 -1.1713723058450989 0.5000943060621855 0.0
C C 0.6655509976609898 -1.2022307263535823 0.5847720355343492 0.0
H H 0.7363609976609898 -1.2306007263535823 0.5662320355343492 0.0
C C 0.5860327108078836 -1.2070819799219639 0.6507996791921355 0.0
C C 0.49555041743070194 -1.180427210723786 0.6984771293242811 0.0
H H 0.4672404174307019 -1.1805972107237863 0.746637129324281 0.0
C C 0.40433215521620836 -1.1331354912319407 0.6390802797424552 0.0
H H 0.3308421552162084 -1.1046054912319405 0.6554402797424553 0.0
O O 0.30475338638078636 -1.1463718916940782 0.40956308352410686 0.0
O O 0.09469697846082747 -1.1341016832896733 0.48690005540130316 0.0
O O -0.11843972505403119 -0.845424245931404 0.2527573760053431 0.0
O O 0.3470871991881401 -0.8821114899297673 0.1806756123244392 0.0
N N 0.11413397254424697 -0.8532784595374263 0.24212607515681284 0.0
N N 0.2406085032617073 -1.0016502864916481 0.40483471792927794 0.0
C C 0.12282338530167841 -1.1520071833220809 0.4325250233620253 0.0
C C 0.023313471417646284 -1.2145346874796328 0.39418701885060514 0.0
C C -0.09814746172704553 -1.2084305260766885 0.44091720359612185 0.0
H H -0.13235746172704552 -1.1837005260766886 0.47817720359612187 0.0
C C 0.23446327370665143 -0.7691529516680089 0.10322700650494795 0.0
H H 0.3328732737066515 -0.7780229516680089 0.08348700650494797 0.0
C C 0.14221719882407582 -0.7964388169261709 0.12544914445268285 0.0
C C -0.012132214684214463 -0.7908734965960448 0.1649520950548496 0.0
C C 0.12152041399094286 -1.2334562743874458 0.3511589254613194 0.0
H H 0.22201041399094285 -1.226026274387446 0.3324189254613194 0.0
C C 0.2585399892969558 -0.8567968990139367 0.18032606399202533 0.0
C C -0.02187653736125671 -0.818341641783205 0.22909615261936148 0.0
C C 0.23339453603975838 -1.009379659115885 0.32705889630789475 0.0
H H 0.2889145360397584 -1.045149659115885 0.3168288963078948 0.0
C C 0.22932517093858829 -0.9620988227970634 0.27877860463217696 0.0
H H 0.25763517093858834 -0.9705688227970634 0.23163860463217698 0.0
C C 0.15896478951551196 -0.917846140210718 0.2963859973900579 0.0
C C 0.09799496483689683 -0.9011810863305947 0.3477391308855023 0.0
H H 0.038014964836896835 -0.8667510863305947 0.3595991308855023 0.0
C C 0.17672032345449362 -0.9444203648712307 0.4049142911253114 0.0
H H 0.14497032345449362 -0.9378003648712306 0.4519942911253114 0.0
