_cell_length_a 8.39304
_cell_length_b 22.23511
_cell_length_c 18.74218
_cell_angle_alpha 90.0
_cell_angle_beta 94.0312
_cell_angle_gamma 90.0
_symmetry_space_group_name_H-M         'P 1'
_symmetry_Int_Tables_number            1
loop_
_symmetry_equiv_pos_as_xyz
   'x, y, z'
                         
loop_
_atom_site_label
_atom_site_type_symbol
_atom_site_fract_x 
_atom_site_fract_y
_atom_site_fract_z
_atom_site_charge
Cd Cd 0.3161664577849548 0.5687297868153707 0.974433851069207 0.0
O O 0.44753315567352464 0.4522717125091349 1.0677017593008018 0.0
O O 0.20163405642141222 0.5167782159651593 1.06661438104023 0.0
O O 0.8848635882959113 0.7853339735389591 1.153882749061716 0.0
O O 0.4204178390797036 0.7548317488375632 1.2713514636759304 0.0
N N 0.4518000823036599 0.6144727940057495 1.0795898736794478 0.0
N N 0.6458831969230541 0.7394380949171449 1.2018138768056115 0.0
C C 0.29854714973967456 0.4764897968169864 1.0695482175724078 0.0
C C 0.2475752225455205 0.41657296855140097 1.1458239879324514 0.0
C C 0.13093397001057505 0.4344593661671525 1.1799719652954586 0.0
H H 0.056023970010575026 0.4653193661671525 1.1673319652954586 0.0
C C 0.12183807712387047 0.37000278042056706 1.2493944694800914 0.0
H H 0.022928077123870454 0.37056278042056706 1.2710544694800916 0.0
C C 0.18518800841771127 0.3322140326859154 1.2346531541234633 0.0
C C 0.3810873817225941 0.32375425712568223 1.2110956908176997 0.0
C C 0.40956315355161965 0.38172412375412595 1.1674593943713893 0.0
H H 0.5071731535516197 0.379694123754126 1.1449293943713892 0.0
C C 0.5315052617932681 0.7763614062716564 1.2654193493176973 0.0
C C 0.797377395388126 0.7745423209292902 1.1872642212952351 0.0
C C 0.5129344772007934 0.6727360566248233 1.0253411660642306 0.0
H H 0.5413444772007934 0.6700060566248234 0.9772111660642309 0.0
C C 0.578227182583443 0.7178070745043732 1.0748329834956498 0.0
H H 0.649037182583443 0.7461770745043731 1.0562929834956498 0.0
C C 0.6222344792515516 0.7021643481808983 1.155686203961975 0.0
C C 0.49338090522640277 0.6593654912593772 1.1720457439107672 0.0
H H 0.4650709052264028 0.6595354912593772 1.2202057439107674 0.0
C C 0.39091075774822176 0.6382975957665895 1.1171919529254266 0.0
H H 0.31742075774822176 0.6097675957665896 1.1335519529254265 0.0
O O 0.24782169970818874 0.6452127362766895 0.8956970521403941 0.0
O O 0.07361575528732275 0.639659969672425 0.9647027555752293 0.0
O O -0.17997042376248043 0.3382099337795118 0.7669169365575492 0.0
O O 0.38156292798946256 0.36636981379150874 0.6762680889938422 0.0
N N 0.1350158946124752 0.36131514365099715 0.7454029937322831 0.0
N N 0.25857002573703586 0.48530728550777924 0.9192494341606183 0.0
C C 0.1383832607168881 0.6364855095088223 0.9421836314292396 0.0
C C 0.052125795258457064 0.700772383373097 0.8915442505371712 0.0
C C -0.07144979261967738 0.7120051520009227 0.9365121293921136 0.0
H H -0.10565979261967738 0.6872751520009228 0.9737721293921134 0.0
C C 0.19104439338550383 0.2505721504700756 0.6083991114037421 0.0
H H 0.2894543933855038 0.25944215047007557 0.5886591114037422 0.0
C C 0.12936342564257783 0.2971731287380702 0.6300265692119178 0.0
C C -0.014781324111884127 0.28595614199717745 0.6657839028993652 0.0
C C 0.10296732578556467 0.7318757700420498 0.8621897383375936 0.0
H H 0.2034573257855647 0.7244457700420498 0.8434497383375936 0.0
C C 0.2014974303024727 0.3694263076494064 0.6754220802327588 0.0
C C -0.01565282639045478 0.33617179523285795 0.7257124507976741 0.0
C C 0.3129153626545919 0.49111173685405396 0.8417591267433291 0.0
H H 0.3684353626545919 0.526881736854054 0.8315291267433291 0.0
C C 0.24281008837437157 0.4740695356479027 0.7802487885765864 0.0
H H 0.2711200883743715 0.4825395356479027 0.7331087885765866 0.0
C C 0.14309404307847465 0.41426167232791905 0.7889271025515446 0.0
C C 0.06630913161558585 0.4023912954592004 0.8414514984265031 0.0
H H 0.006329131615585888 0.3679612954592004 0.8533114984265032 0.0
C C 0.13630276050800827 0.44761247172733915 0.9072803338054961 0.0
H H 0.10455276050800826 0.44099247172733913 0.9543603338054961 0.0
Cd Cd -0.30082374062943984 1.042653433367901 -0.48842789672798315 0.0
O O -0.4634594512523009 0.9579939762740806 -0.5714098908041018 0.0
O O -0.21432829130435466 1.0107112720582025 -0.5971096859460885 0.0
O O -0.8609514291504313 1.2655158597297949 -0.6428235875662643 0.0
O O -0.4089730541860486 1.2604129213429693 -0.7466310399951768 0.0
N N -0.4434134408318343 1.1252066381542103 -0.5679741233912524 0.0
N N -0.6248030351415597 1.2552514358100564 -0.6931059562743754 0.0
C C -0.32911597644917484 0.9645481181370302 -0.594843369950621 0.0
C C -0.29820190732338675 0.9233209761986507 -0.6668166067657482 0.0
C C -0.14070802344393207 0.9336245276632319 -0.6685005530045285 0.0
H H -0.06579802344393208 0.964484527663232 -0.6558605530045285 0.0
C C -0.13611452513333652 0.8929298467574058 -0.7402806688851393 0.0
H H -0.03720452513333648 0.8934898467574058 -0.7619406688851393 0.0
C C -0.23366097879858036 0.8400996052526267 -0.7637905455633793 0.0
C C -0.34870452782937317 0.8358448486499177 -0.6999830899966694 0.0
C C -0.3745239038548493 0.8757090850447673 -0.6614624078551106 0.0
H H -0.4721339038548494 0.8736790850447672 -0.6389324078551106 0.0
C C -0.5024899460362121 1.281902329598926 -0.7334007702615979 0.0
C C -0.7960090013537061 1.3045473276465025 -0.7155081546069918 0.0
C C -0.537353348564657 1.158934390875492 -0.5472219975078483 0.0
H H -0.5657633485646572 1.156204390875492 -0.49909199750784844 0.0
C C -0.598956543894835 1.2112231516202976 -0.5799083519044043 0.0
H H -0.6697665438948351 1.2395931516202976 -0.5613683519044043 0.0
C C -0.5926185431739207 1.2232263255251254 -0.6510655158309462 0.0
C C -0.4966973226455095 1.161403481288965 -0.6851469085064259 0.0
H H -0.4683873226455095 1.161573481288965 -0.7333069085064259 0.0
C C -0.4275810514939699 1.134466717130605 -0.6524802910549263 0.0
H H -0.35409105149396986 1.1059367171306052 -0.6688402910549265 0.0
O O -0.2893995007907427 1.1289748855506334 -0.397595017570053 0.0
O O -0.1411726418878304 1.129965181823844 -0.4940979844781456 0.0
O O 0.12918139447193575 0.8263570016287518 -0.2680431480966606 0.0
O O -0.36292427743120215 0.8708177364374754 -0.1934936768841991 0.0
N N -0.11898671906141359 0.8868601324376411 -0.2517743653136353 0.0
N N -0.23565486536540187 1.01254831571106 -0.41554728945330416 0.0
C C -0.09572861865849862 1.1452593709501546 -0.4146719890102847 0.0
C C -0.07089991100852212 1.210600619504868 -0.42720393144954133 0.0
C C 0.13401864430969002 1.2122728718675324 -0.42912574856678576 0.0
H H 0.16822864430969 1.1875428718675325 -0.4663857485667858 0.0
C C -0.15421961994992894 0.7699106083569961 -0.08501077007040994 0.0
H H -0.252629619949929 0.7787806083569961 -0.06527077007040996 0.0
C C -0.1314826590299187 0.8022086220515008 -0.16163376077857267 0.0
C C -0.00698116348242325 0.7931816235170582 -0.1798517405178158 0.0
C C -0.09812167132239154 1.2417354200900605 -0.3752991848921169 0.0
H H -0.1986116713223915 1.2343054200900605 -0.35655918489211696 0.0
C C -0.26115890581454404 0.8611729043863958 -0.20348301438746835 0.0
C C 0.019374666225311424 0.8188705629599615 -0.23606249183003844 0.0
C C -0.23826361591176523 1.0047854580129967 -0.34075971995021564 0.0
H H -0.2937836159117652 1.0405554580129968 -0.33052971995021574 0.0
C C -0.22108064343924416 0.9799936244362637 -0.29386098033463165 0.0
H H -0.2493906434392442 0.9884636244362637 -0.2467209803346317 0.0
C C -0.11029165575470573 0.8982425472516721 -0.2733468121162791 0.0
C C -0.1222453247584719 0.9177373719257007 -0.377760099297844 0.0
H H -0.0622653247584719 0.8833073719257007 -0.389620099297844 0.0
C C -0.1289088866857464 0.9399449763099272 -0.41923714820150676 0.0
H H -0.09715888668574638 0.9333249763099272 -0.46631714820150666 0.0
Cd Cd -0.27647568168402464 -0.5651139866754943 -0.972920267086824 0.0
O O -0.4242758692384972 -0.4779043557565272 -1.054921678757631 0.0
O O -0.19279305130080068 -0.5181771621038963 -1.078646870608728 0.0
O O -0.8824969103816006 -0.7644398584024972 -1.1772588896034613 0.0
O O -0.37881679043780603 -0.7808534072737245 -1.2490024929626702 0.0
N N -0.4511337643643506 -0.6339693420641929 -1.0657313264285602 0.0
N N -0.638478832173404 -0.7609720537676772 -1.208840382200706 0.0
C C -0.302626572601555 -0.46966688001130685 -1.0803531766061987 0.0
C C -0.3112197162908095 -0.4189920487043786 -1.163430544752 0.0
C C -0.13702500161464282 -0.4075457183756453 -1.1914533840754464 0.0
H H -0.062115001614642784 -0.4384057183756453 -1.1788133840754462 0.0
C C -0.11085166235340507 -0.36394221001177823 -1.2453934614338795 0.0
H H -0.011941662353405044 -0.36450221001177824 -1.2670534614338795 0.0
C C -0.20028199029989882 -0.32660559290884017 -1.2447479492332163 0.0
C C -0.38701396960049195 -0.31944000687242974 -1.2377404312064704 0.0
C C -0.35035963448873647 -0.3948363739387776 -1.1532793163405315 0.0
H H -0.44796963448873656 -0.39280637393877754 -1.1307493163405316 0.0
C C -0.5299876183941368 -0.8047352000148523 -1.2363605420490822 0.0
C C -0.8123104553642083 -0.776742583960676 -1.1889679908003419 0.0
C C -0.5580935688198954 -0.6522641884771734 -1.042265795930425 0.0
H H -0.5865035688198953 -0.6495341884771736 -0.9941357959304249 0.0
C C -0.6160802355785998 -0.7079929476861748 -1.1066848646110043 0.0
H H -0.6868902355785999 -0.7363629476861747 -1.0881448646110043 0.0
C C -0.6062473032315335 -0.7077762336948338 -1.1648762426475825 0.0
C C -0.5006614486702636 -0.6796964963457487 -1.1794257297397266 0.0
H H -0.47235144867026374 -0.6798664963457487 -1.2275857297397266 0.0
C C -0.4401027212491973 -0.6128283958069711 -1.1402929526821002 0.0
H H -0.3666127212491973 -0.5842983958069711 -1.1566529526821003 0.0
O O -0.2696961117398253 -0.637700944215074 -0.9291581921317315 0.0
O O -0.10522362939015309 -0.6167489234375976 -0.9720626787219927 0.0
O O 0.14157897414264894 -0.33831601865370475 -0.7733073964570865 0.0
O O -0.2952093157408642 -0.3863355073720716 -0.66157351948301 0.0
N N -0.06913042177586076 -0.38519973579920536 -0.7285714546273383 0.0
N N -0.2077774112236411 -0.4926080983111521 -0.8968233986516313 0.0
C C -0.14022595886047778 -0.6597480800382854 -0.949599965375859 0.0
C C -0.023664492964788928 -0.7153552191610248 -0.9083518230906332 0.0
C C 0.1067030019344598 -0.7039061655817225 -0.9513978217887892 0.0
H H 0.14091300193445983 -0.6791761655817226 -0.988657821788789 0.0
C C -0.19830961997449623 -0.2539337216840459 -0.6067433434964326 0.0
H H -0.29671961997449625 -0.26280372168404587 -0.5870033434964326 0.0
C C -0.13966864739550366 -0.3071348308920991 -0.6362904673709824 0.0
C C 0.036740441928130564 -0.29774170465497923 -0.6738878028067017 0.0
C C -0.12808326587028573 -0.7493229053751246 -0.8564155756373847 0.0
H H -0.22857326587028573 -0.7418929053751245 -0.8376755756373847 0.0
C C -0.19657754022346888 -0.35616882547245554 -0.6668802100203302 0.0
C C 0.012048395009866531 -0.33637732893297667 -0.7482931474352766 0.0
C C -0.25036036446202004 -0.5057339825385831 -0.8251721438893068 0.0
H H -0.30588036446202 -0.5415039825385832 -0.8149421438893069 0.0
C C -0.2267525384803684 -0.4500675050500683 -0.7734064859263305 0.0
H H -0.25506253848036836 -0.4585375050500683 -0.7262664859263306 0.0
C C -0.1434012378610941 -0.40452752117073976 -0.7785800570295128 0.0
C C -0.08371223211943687 -0.41652172354542494 -0.8671094372966084 0.0
H H -0.023732232119436883 -0.382091723545425 -0.8789694372966085 0.0
C C -0.08960711799377816 -0.45667732566262653 -0.8858671973801858 0.0
H H -0.057857117993778136 -0.45005732566262646 -0.9329471973801858 0.0
Cd Cd 0.3196991190266241 -1.0580772361098398 0.5095628515143128 0.0
O O 0.4056176992181251 -0.9423082817876588 0.5565339605195992 0.0
O O 0.21302442244949318 -1.004696786491674 0.5825076144285165 0.0
O O 0.9228206097573453 -1.266305825635635 0.6646902933685346 0.0
O O 0.4290454911044934 -1.2575500836226987 0.7641105001522278 0.0
N N 0.4558806567601999 -1.139272519035857 0.5698423209654682 0.0
N N 0.657854359190342 -1.2482681017520982 0.713095964371271 0.0
C C 0.31189511660515945 -0.9684366402867325 0.6056086688031146 0.0
C C 0.285296434472194 -0.9092025191307654 0.6257196463855395 0.0
C C 0.10419452783898187 -0.9177245991852196 0.6660761442432155 0.0
H H 0.029284527838981875 -0.9485845991852199 0.6534361442432155 0.0
C C 0.09089877468332616 -0.8720768597727796 0.7238016235814528 0.0
H H -0.008011225316673868 -0.8726368597727796 0.7454616235814527 0.0
C C 0.22333265063465377 -0.8308527769305337 0.7548790035862193 0.0
C C 0.376663215512277 -0.8448308284640031 0.7252353168552492 0.0
C C 0.41910167768687645 -0.8844228281841378 0.6649415128146876 0.0
H H 0.5167116776868765 -0.8823928281841378 0.6424115128146877 0.0
C C 0.5363020620233497 -1.2962721655859994 0.7504949975093318 0.0
C C 0.7887254492285647 -1.2812174082729477 0.6951355304757925 0.0
C C 0.5257550284197325 -1.1549105196544172 0.5509936641610034 0.0
H H 0.5541650284197326 -1.152180519654417 0.5028636641610035 0.0
C C 0.5827050655752798 -1.1928538694095079 0.5684154993770115 0.0
H H 0.6535150655752799 -1.221223869409508 0.5498754993770114 0.0
C C 0.5385644599052272 -1.2066700084383306 0.6550001823692241 0.0
C C 0.44313639611875855 -1.156453392335511 0.6854079309883566 0.0
H H 0.4148263961187585 -1.156623392335511 0.7335679309883566 0.0
C C 0.4487628208682207 -1.126966531925532 0.6305908260088612 0.0
H H 0.3752728208682207 -1.098436531925532 0.6469508260088614 0.0
O O 0.30061344062844825 -1.1456748298611092 0.41965571087278364 0.0
O O 0.07681275080821794 -1.1373779876282433 0.4954154028656338 0.0
O O -0.1314896509516997 -0.8484849504679051 0.2776745349017666 0.0
O O 0.32430846325627194 -0.880009504442613 0.17002152508364346 0.0
N N 0.14113779894470202 -0.861099731010155 0.23912813773131678 0.0
N N 0.225587492179074 -0.9951850456077831 0.4193197405520247 0.0
C C 0.11499042689031029 -1.1469216096606063 0.4473749071777952 0.0
C C -0.004677662248098067 -1.2012883293002907 0.39749420568041527 0.0
C C -0.1350037050076101 -1.220679647159501 0.4411602866658962 0.0
H H -0.16921370500761004 -1.195949647159501 0.47842028666589614 0.0
C C 0.15978942547751201 -0.7709458724613303 0.07741150072745094 0.0
H H 0.258199425477512 -0.7798158724613303 0.05767150072745097 0.0
C C 0.17952002246334725 -0.8119164301812052 0.1638770163490546 0.0
C C -0.012520618870232285 -0.7962118524630175 0.18707884526193963 0.0
C C 0.14117124286268826 -1.2487631271686397 0.3704293230388199 0.0
H H 0.24166124286268825 -1.2413331271686399 0.35168932303881995 0.0
C C 0.24744138542044325 -0.8630186396903912 0.18888954134067462 0.0
C C -0.008327327415476267 -0.8481642047607347 0.23559741185687896 0.0
C C 0.26962334036024704 -1.001548557578728 0.3411865160733563 0.0
H H 0.325143340360247 -1.037318557578728 0.3309565160733564 0.0
C C 0.1839516541402279 -0.9623084104008846 0.26963055482144843 0.0
H H 0.21226165414022788 -0.9707784104008845 0.22249055482144842 0.0
C C 0.17651141213761926 -0.9309916655795618 0.30885886242778837 0.0
C C 0.051441230243876965 -0.8888245241464259 0.3551099674327247 0.0
H H -0.00853876975612304 -0.8543945241464259 0.3669699674327247 0.0
C C 0.14569904208633763 -0.9365350570300478 0.3870866058881224 0.0
H H 0.11394904208633762 -0.9299150570300478 0.4341666058881223 0.0
