_cell_length_a 8.39304
_cell_length_b 22.23511
_cell_length_c 18.74218
_cell_angle_alpha 90.0
_cell_angle_beta 94.0312
_cell_angle_gamma 90.0
_symmetry_space_group_name_H-M         'P 1'
_symmetry_Int_Tables_number            1
loop_
_symmetry_equiv_pos_as_xyz
   'x, y, z'
                         
loop_
_atom_site_label
_atom_site_type_symbol
_atom_site_fract_x 
_atom_site_fract_y
_atom_site_fract_z
_atom_site_charge
Cd Cd 0.3240539654321461 0.5495459329499168 0.9851857316573261 0.0
O O 0.443864361625699 0.4554852108429817 1.0503712741273215 0.0
O O 0.19957468960659808 0.5039834883670803 1.0848126892273846 0.0
O O 0.8944823375538858 0.7695840316105724 1.1636497085682336 0.0
O O 0.41351667501712575 0.7757429788369372 1.2638473810241408 0.0
N N 0.43998893807930084 0.6300917391865825 1.0552063655580783 0.0
N N 0.6364531297222704 0.7596059774975558 1.209191803702748 0.0
C C 0.32335260868185706 0.47270481736568726 1.077129323236957 0.0
C C 0.2923882853641593 0.428898573728378 1.1435505529232988 0.0
C C 0.12094700721112137 0.4141671658978462 1.174351424051529 0.0
H H 0.0460370072111213 0.44502716589784624 1.1617114240515287 0.0
C C 0.10711965653768635 0.37848633922105607 1.2408433274793798 0.0
H H 0.0082096565376863 0.37904633922105607 1.2625033274793798 0.0
C C 0.23788337571241625 0.3384134991544166 1.2417348595284585 0.0
C C 0.3618111926900215 0.3418716941767 1.2170173188102396 0.0
C C 0.3678610475284082 0.38196025484929674 1.1731502565753416 0.0
H H 0.4654710475284083 0.37993025484929677 1.1506202565753416 0.0
C C 0.5333393572625488 0.7823415766254244 1.2381471267938056 0.0
C C 0.7902892072936382 0.7835047056967632 1.1949610849922105 0.0
C C 0.5743590909729662 0.6557325859296073 1.037586422254273 0.0
H H 0.6027690909729663 0.6530025859296074 0.9894564222542732 0.0
C C 0.598578758628514 0.7047473161023441 1.0902463404277285 0.0
H H 0.669388758628514 0.733117316102344 1.0717063404277285 0.0
C C 0.563468132591411 0.7102734518666343 1.1527996080919825 0.0
C C 0.46395035909842863 0.665777248414367 1.1861174607446245 0.0
H H 0.4356403590984287 0.665947248414367 1.2342774607446247 0.0
C C 0.3979797054412253 0.6262047012411264 1.1326603542342804 0.0
H H 0.3244897054412253 0.5976747012411264 1.1490203542342803 0.0
O O 0.2967756065752685 0.6333653883791331 0.9185964344719153 0.0
O O 0.07310454353792412 0.6270518636569478 0.9809238381204983 0.0
O O -0.1660615604167241 0.3392381455458653 0.7687578746558498 0.0
O O 0.34885088509159806 0.3775320827636838 0.6742846671041054 0.0
N N 0.1184774325742512 0.37016561034426215 0.7351806970930018 0.0
N N 0.2520537500412714 0.4995340750354224 0.8891700017469429 0.0
C C 0.14103372091493666 0.6440411331903801 0.9382390056250918 0.0
C C 0.052190733610734646 0.7102148931009893 0.8955444208673159 0.0
C C -0.07015087476492962 0.7178069167494657 0.9447568690971816 0.0
H H -0.10436087476492965 0.6930769167494658 0.9820168690971816 0.0
C C 0.20298424667317647 0.263792625345271 0.5802827296611757 0.0
H H 0.30139424667317644 0.27266262534527097 0.5605427296611757 0.0
C C 0.14623359743992217 0.29339677685384596 0.6487316593138587 0.0
C C 0.0016915717984995317 0.29766021092724043 0.6647984844203371 0.0
C C 0.0830450869541914 0.7333390537980111 0.8582469215943073 0.0
H H 0.18353508695419143 0.7259090537980112 0.8395069215943073 0.0
C C 0.20845785004210593 0.3463451443351334 0.6743274024071968 0.0
C C -0.023581103253987896 0.3381779785871316 0.7392863641269791 0.0
C C 0.26616231547222746 0.5111129051004674 0.8240638372916194 0.0
H H 0.3216823154722274 0.5468829051004674 0.8138338372916194 0.0
C C 0.2419267793005471 0.4641398014050859 0.7864013585332907 0.0
H H 0.27023677930054707 0.4726098014050859 0.7392613585332908 0.0
C C 0.11739093772061428 0.4137735389032119 0.7823241174571445 0.0
C C 0.08829644743750194 0.4053166270789535 0.8512577371191714 0.0
H H 0.02831644743750198 0.3708866270789535 0.8631177371191716 0.0
C C 0.12939083215235586 0.4401920992017207 0.9211615199549714 0.0
H H 0.09764083215235583 0.4335720992017207 0.9682415199549714 0.0
Cd Cd -0.327715225681662 1.0461332130390752 -0.4867475468530802 0.0
O O -0.41573296426609696 0.9681111513297403 -0.5703170270843512 0.0
O O -0.1973461895305489 1.007115648329828 -0.5892854582637675 0.0
O O -0.8926076044017598 1.2730956846691883 -0.6553730226404938 0.0
O O -0.4314023807546023 1.2766331984016748 -0.7637148878349707 0.0
N N -0.44028070914516143 1.116520046146724 -0.5610508810512551 0.0
N N -0.6470746941499725 1.2503925268428966 -0.6948531867760709 0.0
C C -0.27525497344288086 0.9717995861496993 -0.5906990289849148 0.0
C C -0.2749102448454331 0.9214200340375899 -0.6484653610372324 0.0
C C -0.12341949032266178 0.9201500400203132 -0.6931529067224715 0.0
H H -0.04850949032266178 0.9510100400203134 -0.6805129067224716 0.0
C C -0.07888590664433023 0.8775634927396139 -0.7241463981375819 0.0
H H 0.020024093355669778 0.8781234927396139 -0.745806398137582 0.0
C C -0.21384630827164597 0.8443929711831101 -0.7509333673404582 0.0
C C -0.3611319936362768 0.8457474865781841 -0.7133757705497237 0.0
C C -0.3962147715508846 0.8775235255286037 -0.6603696341024317 0.0
H H -0.4938247715508847 0.8754935255286037 -0.6378396341024317 0.0
C C -0.5659023172408306 1.286355212841971 -0.7613561416882733 0.0
C C -0.8112215950111208 1.288483055621076 -0.6867251654481556 0.0
C C -0.5235126165513685 1.1574375619716173 -0.5327447566604634 0.0
H H -0.5519226165513686 1.1547075619716172 -0.4846147566604635 0.0
C C -0.6104444057444659 1.204144756807247 -0.5726180307885435 0.0
H H -0.681254405744466 1.232514756807247 -0.5540780307885433 0.0
C C -0.6023639706886205 1.2207509418270643 -0.6603171530501293 0.0
C C -0.485595623997495 1.16050511529249 -0.6835851512940436 0.0
H H -0.457285623997495 1.16067511529249 -0.7317451512940436 0.0
C C -0.4393053827805635 1.1199305047872952 -0.6200588693468396 0.0
H H -0.3658153827805635 1.0914005047872952 -0.6364188693468398 0.0
O O -0.28705944774730946 1.15067013120268 -0.40477915777958834 0.0
O O -0.07150567376827055 1.1320501809251047 -0.4890325855381374 0.0
O O 0.14369706787013434 0.8437450224658626 -0.2701239261412176 0.0
O O -0.3669642453036267 0.8787271697315207 -0.17358471003689266 0.0
N N -0.11557014045059183 0.867801709491672 -0.22861686745600782 0.0
N N -0.2159741742706647 0.9954395156908447 -0.3927452574802534 0.0
C C -0.13676748112464857 1.1551686181281164 -0.43674896577972294 0.0
C C -0.03393994582582912 1.2119772252234084 -0.40350431174090073 0.0
C C 0.11841711223357468 1.227942170393252 -0.4452343407865391 0.0
H H 0.15262711223357464 1.2032121703932521 -0.48249434078653913 0.0
C C -0.19897224356069534 0.7608594528203392 -0.09328048352879191 0.0
H H -0.29738224356069537 0.7697294528203392 -0.07354048352879193 0.0
C C -0.12588137521087286 0.8076535162229179 -0.14062397948888902 0.0
C C 0.014374552112172537 0.7784779041604466 -0.1663715751755849 0.0
C C -0.1222979566729423 1.2352474364111174 -0.3460071201178583 0.0
H H -0.22278795667294232 1.2278174364111176 -0.3272671201178583 0.0
C C -0.21088282726021054 0.8591621200790845 -0.18971133185330727 0.0
C C 0.0038859375134738592 0.830555250411493 -0.23657350660318258 0.0
C C -0.24274336208483077 0.9966205226462158 -0.3301085656363248 0.0
H H -0.2982633620848308 1.032390522646216 -0.31987856563632483 0.0
C C -0.23380375532772674 0.9616744038591748 -0.2830367836106267 0.0
H H -0.26211375532772674 0.9701444038591748 -0.2358967836106267 0.0
C C -0.15139685715615434 0.9098097161615788 -0.2783408124047469 0.0
C C -0.07022318541347793 0.9070997408948476 -0.3584824107856375 0.0
H H -0.01024318541347792 0.8726697408948477 -0.3703424107856375 0.0
C C -0.13653665872955487 0.9446819167179429 -0.4037311227057701 0.0
H H -0.10478665872955485 0.9380619167179429 -0.45081112270577006 0.0
Cd Cd -0.3064716030715124 -0.5619394373084947 -0.9836658034206298 0.0
O O -0.4435016775411318 -0.4693365238001418 -1.052471419126596 0.0
O O -0.19751383273070874 -0.5055985367990777 -1.0650903240110785 0.0
O O -0.8729215160872632 -0.7651104860541382 -1.1529175966202803 0.0
O O -0.3972429921749941 -0.7804041721103812 -1.257690135556914 0.0
N N -0.46176489904307205 -0.6278063290827316 -1.0639454416721652 0.0
N N -0.6113964382826664 -0.7566779166035271 -1.206418376277531 0.0
C C -0.3091943452793254 -0.45612848398002664 -1.0845911418103178 0.0
C C -0.2446352840558594 -0.42648091035607244 -1.1412568674204775 0.0
C C -0.11166114918107817 -0.4174668589718222 -1.1812665456540776 0.0
H H -0.03675114918107812 -0.44832685897182223 -1.1686265456540776 0.0
C C -0.07958555766339573 -0.3742529770321292 -1.2222090884723573 0.0
H H 0.019324442336604304 -0.3748129770321292 -1.2438690884723573 0.0
C C -0.231748743012615 -0.3407945180049944 -1.2389499445640775 0.0
C C -0.3645391619415861 -0.3404769672624942 -1.2187483998940432 0.0
C C -0.40010863414836584 -0.38217080006204807 -1.1554941729383184 0.0
H H -0.4977186341483659 -0.3801408000620481 -1.1329641729383184 0.0
C C -0.5377321025234493 -0.792078336602238 -1.2547586752799234 0.0
C C -0.7979433626935674 -0.7854755618680442 -1.197738003360323 0.0
C C -0.5670158523429292 -0.664079764784332 -1.034857052870035 0.0
H H -0.5954258523429292 -0.661349764784332 -0.986727052870035 0.0
C C -0.6277372752707518 -0.6981438069195378 -1.0888469456073346 0.0
H H -0.698547275270752 -0.7265138069195376 -1.0703069456073346 0.0
C C -0.5978135954478541 -0.7117251986341814 -1.1490010554177545 0.0
C C -0.4823985439016229 -0.6747007612497699 -1.1685189998883116 0.0
H H -0.45408854390162295 -0.6748707612497699 -1.2166789998883119 0.0
C C -0.38678389092235166 -0.6196944166088888 -1.133174324219454 0.0
H H -0.31329389092235166 -0.5911644166088889 -1.149534324219454 0.0
O O -0.2615120883727667 -0.6494846750877442 -0.9042585044831765 0.0
O O -0.11986917423234958 -0.61992050103651 -0.9765946567500998 0.0
O O 0.1533075570301081 -0.33718206183930527 -0.758975548690195 0.0
O O -0.3163705943678402 -0.3782737153637594 -0.6742448382917678 0.0
N N -0.1057562522385594 -0.370533893638117 -0.7388235954199075 0.0
N N -0.20223340346378546 -0.4935003182037385 -0.8982744115364719 0.0
C C -0.163499752965339 -0.6521976329588454 -0.922006431523069 0.0
C C -0.01548645403461165 -0.7137664544129216 -0.9043312811317844 0.0
C C 0.11200426455620675 -0.7104001535671067 -0.9300552722055511 0.0
H H 0.14621426455620676 -0.6856701535671068 -0.9673152722055509 0.0
C C -0.1649741764037875 -0.27458423741946086 -0.5900316787998118 0.0
H H -0.2633841764037875 -0.2834542374194609 -0.5702916787998118 0.0
C C -0.11733206963856312 -0.29318896597076827 -0.6390441403544876 0.0
C C -0.008205976520125814 -0.29554618570735797 -0.6718471374402372 0.0
C C -0.12523487850586862 -0.7445945985775333 -0.8450239038722893 0.0
H H -0.22572487850586864 -0.7371645985775332 -0.8262839038722893 0.0
C C -0.22678922243080793 -0.35411100556672853 -0.6747254397059669 0.0
C C 0.02807815568026042 -0.3380087444548233 -0.7193375623797613 0.0
C C -0.2768015678107724 -0.5101472095140027 -0.8368453137167631 0.0
H H -0.33232156781077243 -0.5459172095140028 -0.8266153137167631 0.0
C C -0.22538760235130453 -0.46258638659137896 -0.7764933741101456 0.0
H H -0.25369760235130456 -0.47105638659137894 -0.7293533741101457 0.0
C C -0.15340624244110815 -0.40030043181121416 -0.7918507975959403 0.0
C C -0.1218074674283205 -0.4102456287579057 -0.8558238494053494 0.0
H H -0.06182746742832053 -0.3758156287579057 -0.8676838494053495 0.0
C C -0.11579152722618717 -0.4418175830229746 -0.915607563487909 0.0
H H -0.08404152722618716 -0.4351975830229745 -0.962687563487909 0.0
Cd Cd 0.3407812450047504 -1.0539794254600379 0.49004727423097905 0.0
O O 0.44253329840391514 -0.9652028365498896 0.5696171329591848 0.0
O O 0.23204930773520155 -1.0097176698724468 0.5762324544016237 0.0
O O 0.8844273866326534 -1.2782707659049761 0.6692609709049999 0.0
O O 0.40787732194284665 -1.275669138899248 0.7673946842102274 0.0
N N 0.45322364560924167 -1.1113243394741568 0.5645872389869477 0.0
N N 0.6233232833706102 -1.2602554023567631 0.7091630945108379 0.0
C C 0.27403531170710044 -0.9591284915367788 0.5863114064431012 0.0
C C 0.2611819204374158 -0.9115252784135941 0.6501884696138616 0.0
C C 0.15990443988323724 -0.9246923862130191 0.6770976481676255 0.0
H H 0.08499443988323724 -0.9555523862130192 0.6644576481676255 0.0
C C 0.12306470602507108 -0.8744645517025412 0.7277026089955287 0.0
H H 0.024154706025071054 -0.8750245517025412 0.7493626089955288 0.0
C C 0.2007134238828437 -0.8295877245406204 0.7373803230291214 0.0
C C 0.3818564439219505 -0.8310644510782842 0.7266596699482712 0.0
C C 0.40564981685870777 -0.8734805976155063 0.655608322987569 0.0
H H 0.5032598168587079 -0.8714505976155063 0.6330783229875689 0.0
C C 0.5636160985784355 -1.2952840532437773 0.7483840822574197 0.0
C C 0.7792405026691931 -1.2859175553803817 0.7107824407174267 0.0
C C 0.5483292303404782 -1.1651815119467905 0.5403483362308497 0.0
H H 0.5767392303404782 -1.1624515119467904 0.4922183362308498 0.0
C C 0.6549403462526769 -1.2065163609562903 0.5951606885215145 0.0
H H 0.7257503462526771 -1.2348863609562906 0.5766206885215144 0.0
C C 0.5932501029761679 -1.2025395245305772 0.6519775298148013 0.0
C C 0.48991817704173374 -1.1602495135268647 0.6750152107362081 0.0
H H 0.4616081770417337 -1.1604195135268647 0.723175210736208 0.0
C C 0.44395012042750776 -1.129630404667976 0.6264417517767682 0.0
H H 0.3704601204275077 -1.101100404667976 0.6428017517767685 0.0
O O 0.24532610018945744 -1.1463713208612019 0.4153348257934074 0.0
O O 0.12242403885970056 -1.1225042560798297 0.48804064392614055 0.0
O O -0.11762631450733754 -0.8380700424674769 0.2702326385936803 0.0
O O 0.3408357219230937 -0.8800938317710439 0.17178559538611063 0.0
N N 0.10283620940795137 -0.8628452227096302 0.22620913007474028 0.0
N N 0.20733642374586025 -1.0032816115856276 0.4091571697528076 0.0
C C 0.16445646504226424 -1.1469584720502368 0.426902675647616 0.0
C C 0.04042575515525964 -1.2048836661584783 0.41126223266868855 0.0
C C -0.07709107893265156 -1.2189449920033146 0.43695935391622337 0.0
H H -0.11130107893265155 -1.1942149920033147 0.47421935391622333 0.0
C C 0.162560623522208 -0.7672090537445984 0.07997563581031543 0.0
H H 0.260970623522208 -0.7760790537445984 0.06023563581031545 0.0
C C 0.1658038863609153 -0.7981938978168769 0.14473189498343875 0.0
C C -0.02304640729418687 -0.7907200404581866 0.17494548674105675 0.0
C C 0.10487497197714889 -1.2358482657803604 0.3502572392765478 0.0
H H 0.20536497197714887 -1.2284182657803606 0.3315172392765478 0.0
C C 0.20631211117868298 -0.8572993289639276 0.17929892373604478 0.0
C C -0.011435087869100077 -0.8265330952324755 0.22536411198197356 0.0
C C 0.2595499018370055 -1.0015648252902343 0.3180189244388938 0.0
H H 0.3150699018370055 -1.0373348252902344 0.3077889244388939 0.0
C C 0.19122180088564786 -0.9661014452327005 0.26613983534208546 0.0
H H 0.2195318008856479 -0.9745714452327005 0.21899983534208547 0.0
C C 0.14068547985457758 -0.902371065841982 0.2799200517258853 0.0
C C 0.09357608490352941 -0.8997142037873865 0.3511960370960857 0.0
H H 0.03359608490352941 -0.8652842037873866 0.36305603709608575 0.0
C C 0.15720725229786747 -0.9509796912484132 0.4037538244676427 0.0
H H 0.12545725229786747 -0.9443596912484131 0.45083382446764264 0.0
