_cell_length_a 8.39304
_cell_length_b 22.23511
_cell_length_c 18.74218
_cell_angle_alpha 90.0
_cell_angle_beta 94.0312
_cell_angle_gamma 90.0
_symmetry_space_group_name_H-M         'P 1'
_symmetry_Int_Tables_number            1
loop_
_symmetry_equiv_pos_as_xyz
   'x, y, z'
                         
loop_
_atom_site_label
_atom_site_type_symbol
_atom_site_fract_x 
_atom_site_fract_y
_atom_site_fract_z
_atom_site_charge
Cd Cd 0.30375073321044915 0.5560698253885522 0.9734605281645449 0.0
O O 0.4667720728979122 0.4605368780975027 1.0600651644066286 0.0
O O 0.2167325608614727 0.4980848601555086 1.0914653928103624 0.0
O O 0.898599312071483 0.7678498278651652 1.168987934658299 0.0
O O 0.4492640303254184 0.7758622118564348 1.2606240450329254 0.0
N N 0.43256379851575233 0.6324802376291746 1.0696873347651326 0.0
N N 0.6257527965078741 0.7703698386711161 1.1981496743660567 0.0
C C 0.3138623945096632 0.45298419266145434 1.10737673814131 0.0
C C 0.2942887956484466 0.421652590825332 1.140934433645614 0.0
C C 0.16127774209099904 0.42115999425110767 1.179406248059262 0.0
H H 0.086367742090999 0.45201999425110767 1.166766248059262 0.0
C C 0.07996291655089703 0.3887406924363733 1.2180346102533814 0.0
H H -0.018947083449102977 0.38930069243637333 1.2396946102533815 0.0
C C 0.2008520835943402 0.333607318865467 1.2375459564622586 0.0
C C 0.3581432735949918 0.3458281651862629 1.212317610292212 0.0
C C 0.39629423252605234 0.3823317246097304 1.1584677160233154 0.0
H H 0.49390423252605237 0.3803017246097304 1.1359377160233155 0.0
C C 0.5447965976233373 0.7716295835321882 1.2560850348836814 0.0
C C 0.8152206191500131 0.794945954056062 1.195881070825375 0.0
C C 0.561622595403681 0.6598722179455833 1.0542260838308608 0.0
H H 0.590032595403681 0.6571422179455833 1.006096083830861 0.0
C C 0.6498882847242928 0.6953014796760955 1.0829684794478047 0.0
H H 0.7206982847242929 0.7236714796760952 1.0644284794478047 0.0
C C 0.5706411885254133 0.72449613541238 1.1541049755969943 0.0
C C 0.4919727780984802 0.6673075931291748 1.181364544776798 0.0
H H 0.4636627780984802 0.6674775931291748 1.229524544776798 0.0
C C 0.4192507582619576 0.6170823295298516 1.146140199436972 0.0
H H 0.34576075826195757 0.5885523295298517 1.162500199436972 0.0
O O 0.28449340427778885 0.6334204023219666 0.9020916899294864 0.0
O O 0.10576958189350238 0.6167867279061656 1.0006270784612767 0.0
O O -0.14525964584977413 0.3538091518491 0.7476213736288124 0.0
O O 0.31461095067439887 0.3790572459612964 0.658674226353825 0.0
N N 0.1028042344675274 0.3750299838848324 0.7217327393105836 0.0
N N 0.20220683209225732 0.49053519709247195 0.8847598457449566 0.0
C C 0.14305909584331605 0.6677044248719033 0.9371874500146522 0.0
C C 0.0623499398055173 0.7174169574195224 0.9014292305114608 0.0
C C -0.08518127519029323 0.7224708511203781 0.9277775880229233 0.0
H H -0.11939127519029324 0.6977408511203782 0.9650375880229232 0.0
C C 0.19591219710695235 0.2768242132967052 0.5827424713674636 0.0
H H 0.29432219710695234 0.2856942132967052 0.5630024713674636 0.0
C C 0.12947660172099867 0.3028152026212504 0.6450078150799841 0.0
C C -0.02235963356094123 0.28572839301985 0.6631909269087558 0.0
C C 0.12765447288211274 0.7436102382614109 0.86787551813055 0.0
H H 0.2281444728821128 0.736180238261411 0.8491355181305501 0.0
C C 0.1982839498564973 0.36052158451647115 0.6754135025595304 0.0
C C -0.03832336119043857 0.32083535201702207 0.7426367958121111 0.0
C C 0.271432510139629 0.5130603212155248 0.8212039578213469 0.0
H H 0.326952510139629 0.5488303212155249 0.810973957821347 0.0
C C 0.2398174430970539 0.4536356515851153 0.7842851383340879 0.0
H H 0.2681274430970539 0.4621056515851153 0.7371451383340879 0.0
C C 0.15929019565059846 0.4127876924868268 0.7744895021295102 0.0
C C 0.102700691471972 0.40075805884725557 0.8626614406278308 0.0
H H 0.042720691471972015 0.36632805884725556 0.8745214406278309 0.0
C C 0.128586282274474 0.43757136867400553 0.9239779651692865 0.0
H H 0.09683628227447398 0.43095136867400546 0.9710579651692866 0.0
Cd Cd -0.33586015052244605 1.0544885492903635 -0.4840773152546495 0.0
O O -0.4135006182061907 0.9474760449660281 -0.5390775807447844 0.0
O O -0.23069404960191717 1.0170651062393552 -0.57318547292326 0.0
O O -0.8800135349366845 1.282206906016629 -0.6598442349322283 0.0
O O -0.39821982008437296 1.2727397994332394 -0.7699813423474142 0.0
N N -0.43633663617941376 1.1111994590524419 -0.5683429640399547 0.0
N N -0.6340511556180347 1.2596669722707843 -0.7093792088059021 0.0
C C -0.30086592821237684 0.9561114277791296 -0.581074119893759 0.0
C C -0.30063153859717623 0.9116348564439374 -0.6482490048292144 0.0
C C -0.1079199862296136 0.9150822931149238 -0.6747443790854479 0.0
H H -0.033009986229613604 0.9459422931149241 -0.662104379085448 0.0
C C -0.06932782563949058 0.8867857730927328 -0.727268388950572 0.0
H H 0.02958217436050944 0.8873457730927328 -0.7489283889505719 0.0
C C -0.21960759680650416 0.8424815643348914 -0.7646849956007221 0.0
C C -0.33146181749049547 0.8361849221709281 -0.7286205886793673 0.0
C C -0.3965415437513021 0.8856732142764941 -0.6741460377006093 0.0
H H -0.49415154375130216 0.8836432142764942 -0.6516160377006093 0.0
C C -0.5256168327783319 1.2881188922212656 -0.736500192270388 0.0
C C -0.7880021312845092 1.2777822631619584 -0.6932077586015014 0.0
C C -0.5771264892841746 1.1654738215506146 -0.5513253117999151 0.0
H H -0.6055364892841747 1.1627438215506145 -0.5031953117999152 0.0
C C -0.6379940010405862 1.2147343980238494 -0.5827076817418764 0.0
H H -0.7088040010405864 1.2431043980238494 -0.5641676817418763 0.0
C C -0.5490878916986366 1.1979844689690289 -0.6549026346435475 0.0
C C -0.48659561524868683 1.1729194368996063 -0.6822810947840546 0.0
H H -0.4582856152486868 1.1730894368996063 -0.7304410947840545 0.0
C C -0.3877979951173672 1.1146429472876085 -0.6311911539798096 0.0
H H -0.3143079951173671 1.0861129472876085 -0.6475511539798099 0.0
O O -0.29958545093456185 1.1503366403536894 -0.40991263372312964 0.0
O O -0.10275483852664893 1.1278126941006843 -0.4912044726653853 0.0
O O 0.16032598202948806 0.8444004483413148 -0.27323800447892227 0.0
O O -0.35729048971619426 0.8627086620685928 -0.17125225048788856 0.0
N N -0.10725951684968973 0.8598982559149834 -0.2435973849404223 0.0
N N -0.23943624184848059 0.9902654414021915 -0.3826884416215907 0.0
C C -0.13515477398414255 1.1571355708306696 -0.42975009979667816 0.0
C C -0.008772886732572923 1.202877643741872 -0.4086294422218942 0.0
C C 0.11658545094049688 1.2061586399550246 -0.435104249706641 0.0
H H 0.15079545094049684 1.1814286399550247 -0.47236424970664104 0.0
C C -0.21566124178722462 0.770103827950804 -0.10238236559860778 0.0
H H -0.31407124178722456 0.778973827950804 -0.0826423655986078 0.0
C C -0.12205694035548734 0.8061557074753268 -0.14271246436460647 0.0
C C 0.017927073713162434 0.7924622326918497 -0.16223035896850757 0.0
C C -0.07271930036279552 1.243077920521813 -0.36529873560483545 0.0
H H -0.1732093003627955 1.2356479205218132 -0.34655873560483547 0.0
C C -0.2077175833107721 0.8571765593685723 -0.18601442662601247 0.0
C C 0.011278044221652149 0.83409163976955 -0.23995594168896037 0.0
C C -0.24549697882487415 1.0057348215775421 -0.3325712924710405 0.0
H H -0.3010169788248741 1.0415048215775422 -0.32234129247104054 0.0
C C -0.23566040942177807 0.967293994056183 -0.2603532825134141 0.0
H H -0.2639704094217781 0.975763994056183 -0.21321328251341412 0.0
C C -0.12511795592466352 0.906157047412218 -0.28132471292996675 0.0
C C -0.11992575769253033 0.9049014611380481 -0.35939296571856627 0.0
H H -0.05994575769253033 0.8704714611380482 -0.3712529657185663 0.0
C C -0.16565309600186676 0.9447567522171075 -0.4076222918405768 0.0
H H -0.13390309600186676 0.9381367522171075 -0.45470229184057676 0.0
Cd Cd -0.3373467153743081 -0.5577703318888495 -0.9930602182076207 0.0
O O -0.4418575702910058 -0.4709419233531396 -1.045482612193362 0.0
O O -0.18898755907904946 -0.5028908165200249 -1.074239873114331 0.0
O O -0.8944525131373942 -0.7657520301463739 -1.1663630433864718 0.0
O O -0.4052693158574272 -0.775347339596437 -1.2774116932920592 0.0
N N -0.45586855238262025 -0.62091213202015 -1.0744790971824443 0.0
N N -0.64358086742749 -0.7591103197967843 -1.2091384670569176 0.0
C C -0.2876393731861601 -0.4550275103979283 -1.0953397870722377 0.0
C C -0.24395094713609122 -0.41512774647508793 -1.1530156302736545 0.0
C C -0.11566106016203805 -0.42673228030577126 -1.190962903455405 0.0
H H -0.04075106016203799 -0.45759228030577126 -1.1783229034554048 0.0
C C -0.09177266923735215 -0.3889383279116144 -1.2359905939954712 0.0
H H 0.007137330762647868 -0.38949832791161443 -1.2576505939954712 0.0
C C -0.17634075840769362 -0.3458533149726411 -1.2408349688523443 0.0
C C -0.3367183153857036 -0.3325502199880161 -1.2182593232001517 0.0
C C -0.3801539295847174 -0.364405762918674 -1.1663791839369344 0.0
H H -0.47776392958471753 -0.362375762918674 -1.1438491839369345 0.0
C C -0.5259703448528207 -0.7823292703827897 -1.2644244439860144 0.0
C C -0.7794629407585975 -0.7906469313636872 -1.1877105741159055 0.0
C C -0.5538075740117628 -0.658314851412866 -1.0382679760897944 0.0
H H -0.5822175740117629 -0.6555848514128662 -0.9901379760897946 0.0
C C -0.5898599338587079 -0.7116979693182932 -1.0705251919310523 0.0
H H -0.6606699338587079 -0.740067969318293 -1.0519851919310523 0.0
C C -0.5697280548850917 -0.7094404870430097 -1.1651619725298825 0.0
C C -0.4703601601713876 -0.6538275332008917 -1.1795121806743454 0.0
H H -0.44205016017138765 -0.6539975332008917 -1.2276721806743456 0.0
C C -0.38771307716712716 -0.6388433420057668 -1.1314579962468465 0.0
H H -0.3142230771671271 -0.6103133420057668 -1.1478179962468464 0.0
O O -0.28726986644182245 -0.636811441565486 -0.9128665133546251 0.0
O O -0.07776599558876061 -0.6357744286035975 -0.9789572333176537 0.0
O O 0.13256063147342062 -0.34152743143745323 -0.7702643146593459 0.0
O O -0.34832793808877677 -0.3623454412613222 -0.6901379050621866 0.0
N N -0.10581590702470589 -0.37003018564278334 -0.7322150410199005 0.0
N N -0.2627394202068298 -0.48998358575585294 -0.8972857762524916 0.0
C C -0.16454407661983972 -0.6588582030844973 -0.9437446877971577 0.0
C C -0.039942403434815685 -0.7033636948525936 -0.9256250586617075 0.0
C C 0.10249669181690116 -0.7332073077058995 -0.9219853235570749 0.0
H H 0.13670669181690118 -0.7084773077058995 -0.9592453235570747 0.0
C C -0.1744192711203835 -0.27522929241628363 -0.584079842411779 0.0
H H -0.27282927112038347 -0.2840992924162837 -0.564339842411779 0.0
C C -0.13471203172635024 -0.3105425318008133 -0.651634578509258 0.0
C C 0.0019245918063988574 -0.2842202200666089 -0.6589666065622615 0.0
C C -0.07621537333000768 -0.7478884794719971 -0.8578389842713949 0.0
H H -0.17670537333000771 -0.740458479471997 -0.839098984271395 0.0
C C -0.24628673441355053 -0.34265755826114525 -0.6920581754520786 0.0
C C 0.03426852469623334 -0.3279050154263663 -0.7340540640918716 0.0
C C -0.2525275578039309 -0.5121897638112625 -0.8311354006404919 0.0
H H -0.3080475578039309 -0.5479597638112625 -0.8209054006404919 0.0
C C -0.21200188482999585 -0.4790943831791685 -0.7745773104800969 0.0
H H -0.24031188482999585 -0.4875643831791685 -0.727437310480097 0.0
C C -0.1685912938270092 -0.4074348987647695 -0.7990147995319318 0.0
C C -0.0712356154270533 -0.4125301798779089 -0.8507711553402678 0.0
H H -0.011255615427053332 -0.3781001798779089 -0.862631155340268 0.0
C C -0.14326629290460197 -0.43640630847811623 -0.9051318908368379 0.0
H H -0.11151629290460195 -0.4297863084781162 -0.9522118908368379 0.0
Cd Cd 0.3346269858621777 -1.0623486413995764 0.4772662247480145 0.0
O O 0.41108534091490867 -0.9547430970562909 0.552424433718931 0.0
O O 0.21329112647714005 -0.9989362923212923 0.5850470331926967 0.0
O O 0.9129715068229415 -1.2623456929073067 0.6607802184282456 0.0
O O 0.4207709620540833 -1.2808727015391568 0.7614285319804678 0.0
N N 0.4375907181493358 -1.1219811935698456 0.5527618621456989 0.0
N N 0.6724142352068995 -1.266599649661535 0.7180404762353975 0.0
C C 0.3174236621917773 -0.9600199304949052 0.5781535865548225 0.0
C C 0.3062352162303173 -0.927326791608851 0.6524082365277412 0.0
C C 0.10501898429783327 -0.9236111071745151 0.6814625969170165 0.0
H H 0.03010898429783326 -0.9544711071745153 0.6688225969170165 0.0
C C 0.10090242412707144 -0.8690697083450519 0.7338271088105125 0.0
H H 0.0019924241270714263 -0.8696297083450519 0.7554871088105125 0.0
C C 0.20113906543810225 -0.8401079814854937 0.7595607696605688 0.0
C C 0.32492425311645656 -0.8231544559476082 0.7104641530607658 0.0
C C 0.36569255606503337 -0.8651405734256035 0.6690753707812056 0.0
H H 0.46330255606503346 -0.8631105734256034 0.6465453707812057 0.0
C C 0.5289651897206867 -1.286800609987553 0.7406523945537857 0.0
C C 0.8249489122047727 -1.2952517681258562 0.7100101634690159 0.0
C C 0.5656472855224361 -1.1508124861157396 0.5285720638261113 0.0
H H 0.5940572855224363 -1.1480824861157395 0.4804420638261115 0.0
C C 0.647092596645565 -1.199735315996043 0.5823835507459458 0.0
H H 0.7179025966455651 -1.2281053159960431 0.5638435507459457 0.0
C C 0.5865331856012168 -1.2007798768418756 0.6528402231711226 0.0
C C 0.4495801875603922 -1.1754371406766906 0.6841223885219455 0.0
H H 0.42127018756039214 -1.1756071406766906 0.7322823885219455 0.0
C C 0.42540189904827685 -1.135212670872234 0.6328231492938639 0.0
H H 0.3519118990482768 -1.1066826708722342 0.649183149293864 0.0
O O 0.23737533577812261 -1.139414470788379 0.40393107837068076 0.0
O O 0.07560327053249112 -1.1302822252452456 0.49606400669505 0.0
O O -0.1383801488965619 -0.8464846187758043 0.254737613690444 0.0
O O 0.306530119478097 -0.8620513740333559 0.1601253657017885 0.0
N N 0.14718061057618773 -0.8753515893615669 0.23467898143987184 0.0
N N 0.20575022070894955 -1.0039335325220955 0.3928812787029557 0.0
C C 0.18098695511648322 -1.1516754943637004 0.43601657647409925 0.0
C C 0.07292945824099127 -1.2083674484628966 0.40545004536707924 0.0
C C -0.08245737348769124 -1.2071304808616565 0.426221617700905 0.0
H H -0.11666737348769118 -1.1824004808616566 0.46348161770090496 0.0
C C 0.17200229431992423 -0.7700548547591588 0.07882491135165978 0.0
H H 0.2704122943199242 -0.7789248547591588 0.0590849113516598 0.0
C C 0.165888503872461 -0.8033137574591889 0.13369852755073103 0.0
C C -0.03386168206993818 -0.7909775768570146 0.18172766064200757 0.0
C C 0.09152687828238132 -1.2434055825807249 0.3523694619979219 0.0
H H 0.1920168782823813 -1.2359755825807248 0.33362946199792193 0.0
C C 0.23059041601886415 -0.8473362167665952 0.19406237946803834 0.0
C C 0.005745627328242797 -0.8334717125069876 0.2423565553928287 0.0
C C 0.2796460369301706 -1.0092762289892443 0.3449455078173832 0.0
H H 0.33516603693017055 -1.0450462289892444 0.33471550781738324 0.0
C C 0.20795325856108868 -0.9565699690974285 0.27863708907497964 0.0
H H 0.2362632585610887 -0.9650399690974285 0.23149708907497968 0.0
C C 0.18086088161252997 -0.9100099363572578 0.29421038120814946 0.0
C C 0.11319427763987304 -0.9160201120209366 0.36272544965668696 0.0
H H 0.05321427763987304 -0.8815901120209367 0.374585449656687 0.0
C C 0.15257231120336284 -0.9448023604634087 0.40361949480584863 0.0
H H 0.12082231120336283 -0.9381823604634086 0.4506994948058486 0.0
