_cell_length_a 8.39304
_cell_length_b 22.23511
_cell_length_c 18.74218
_cell_angle_alpha 90.0
_cell_angle_beta 94.0312
_cell_angle_gamma 90.0
_symmetry_space_group_name_H-M         'P 1'
_symmetry_Int_Tables_number            1
loop_
_symmetry_equiv_pos_as_xyz
   'x, y, z'
                         
loop_
_atom_site_label
_atom_site_type_symbol
_atom_site_fract_x 
_atom_site_fract_y
_atom_site_fract_z
_atom_site_charge
Cd Cd 0.3129019505700474 0.5539493025315212 1.0014401861944275 0.0
O O 0.42681539543925123 0.46535370087816497 1.068095586427749 0.0
O O 0.1861266748067712 0.5055535186635142 1.0725515969921824 0.0
O O 0.9063330871588821 0.7608611291316648 1.1635853359838615 0.0
O O 0.3804680744276765 0.7716973743747257 1.2556542187152537 0.0
N N 0.4899256147731544 0.6231723797821686 1.0620835930106833 0.0
N N 0.6204205549582165 0.7649567144023437 1.1972364688522124 0.0
C C 0.3330346486269641 0.45724598385072995 1.0856575886884026 0.0
C C 0.28687031525366924 0.4233872731400958 1.1330401685065996 0.0
C C 0.14861058357408455 0.41989243097738665 1.1690790269167088 0.0
H H 0.07370058357408452 0.45075243097738665 1.1564390269167086 0.0
C C 0.10792407046275776 0.36782006290816355 1.2336913516267607 0.0
H H 0.00901407046275775 0.36838006290816355 1.2553513516267607 0.0
C C 0.20789903993011433 0.32946973353548176 1.2539432812903213 0.0
C C 0.37310752522408214 0.3283875623318111 1.214041472497362 0.0
C C 0.3638833353869968 0.3846687791753677 1.162577656829302 0.0
H H 0.4614933353869969 0.3826387791753677 1.140047656829302 0.0
C C 0.539914961246724 0.7953877343962112 1.2464100676323104 0.0
C C 0.8024759884391293 0.7836470834991378 1.1920643534357176 0.0
C C 0.5576256100727787 0.6589200300144418 1.0472276674016083 0.0
H H 0.5860356100727787 0.6561900300144419 0.9990976674016084 0.0
C C 0.6317368273947728 0.6977131417626988 1.0800068290166234 0.0
H H 0.7025468273947727 0.7260831417626986 1.0614668290166234 0.0
C C 0.5787305916531095 0.7197009652826699 1.1606729156319475 0.0
C C 0.48569828994864256 0.6658126779938175 1.1732665848711847 0.0
H H 0.4573882899486426 0.6659826779938175 1.221426584871185 0.0
C C 0.40762624449956086 0.615419289328009 1.1331866631542862 0.0
H H 0.33413624449956086 0.586889289328009 1.149546663154286 0.0
O O 0.24978471436384345 0.6476594198383794 0.896554563849871 0.0
O O 0.12040247113334554 0.6150296085449982 0.9916447085405956 0.0
O O -0.15092510550713018 0.3337389150882698 0.7728866726664158 0.0
O O 0.32663984132910495 0.37303103321288716 0.6635877605595676 0.0
N N 0.09712356694250292 0.36512316303838876 0.7473555323964841 0.0
N N 0.21847890213785723 0.4940713316629768 0.8830782584648023 0.0
C C 0.14910924377530185 0.645196029216196 0.9383108558645537 0.0
C C 0.038469507025401556 0.7056085543705567 0.892883051535951 0.0
C C -0.11081382606174989 0.7229086285049112 0.9243145751350124 0.0
H H -0.1450238260617499 0.6981786285049113 0.9615745751350122 0.0
C C 0.20207484454686073 0.2755198804234408 0.5945065377077366 0.0
H H 0.3004848445468607 0.28438988042344077 0.5747665377077366 0.0
C C 0.16694963158745213 0.29922556721724436 0.650381419480941 0.0
C C -0.02162183963203986 0.2878796977054176 0.6833403186883733 0.0
C C 0.11706537400054802 0.7337111966692812 0.8572789962993103 0.0
H H 0.21755537400054809 0.7262811966692811 0.8385389962993104 0.0
C C 0.2275360146577356 0.3525961168302437 0.6970260090904716 0.0
C C -0.02247801702203574 0.3317638614595013 0.7402651310320357 0.0
C C 0.28764751891787455 0.5052740297498406 0.8160059356017287 0.0
H H 0.3431675189178745 0.5410440297498407 0.8057759356017288 0.0
C C 0.2572359042967821 0.4598559171472599 0.7745979436773089 0.0
H H 0.28554590429678217 0.46832591714725985 0.727457943677309 0.0
C C 0.13607843472826087 0.4145788532953486 0.7888970420580894 0.0
C C 0.07805197513932698 0.39749180700151854 0.8628096015664143 0.0
H H 0.018071975139326988 0.3630618070015185 0.8746696015664144 0.0
C C 0.1378020363479219 0.45210809861005385 0.9052934360808869 0.0
H H 0.10605203634792187 0.44548809861005384 0.9523734360808869 0.0
Cd Cd -0.34930413221347034 1.0635845858810342 -0.4846111022472643 0.0
O O -0.44153735601729777 0.9694338515386581 -0.5567924514775574 0.0
O O -0.24140662871895777 1.0125417408354356 -0.5852152337258897 0.0
O O -0.9068110845976889 1.2760383471646977 -0.6643609759062795 0.0
O O -0.40879378476656575 1.277685263023704 -0.7694321476652028 0.0
N N -0.46172145491944777 1.1239845991501254 -0.5803942569725812 0.0
N N -0.6211062706970478 1.261592188735352 -0.7065147304183923 0.0
C C -0.2921663210549852 0.9611761610015612 -0.5805189755310105 0.0
C C -0.2680155579527428 0.9246543095879655 -0.6444181425982399 0.0
C C -0.14948705658502415 0.9311678725178167 -0.6898445041625053 0.0
H H -0.07457705658502416 0.9620278725178169 -0.6772045041625053 0.0
C C -0.10580743272326489 0.8735029080016801 -0.7233948780902957 0.0
H H -0.006897432723264872 0.8740629080016801 -0.7450548780902957 0.0
C C -0.18477953424845217 0.8310072359194781 -0.7501672966522042 0.0
C C -0.37899748168812475 0.832259784145393 -0.7167729191605323 0.0
C C -0.36206082981093707 0.8773997767878079 -0.6752807441508982 0.0
H H -0.45967082981093715 0.8753697767878078 -0.6527507441508983 0.0
C C -0.584187297083256 1.2954010264513434 -0.7529138651261177 0.0
C C -0.794601202396687 1.2851917845630407 -0.6915487108497993 0.0
C C -0.5706021274545843 1.1684381505103623 -0.5521562380809535 0.0
H H -0.5990121274545844 1.1657081505103621 -0.5040262380809536 0.0
C C -0.6531299213331914 1.2078042014137562 -0.5808074095120865 0.0
H H -0.7239399213331916 1.2361742014137562 -0.5622674095120864 0.0
C C -0.587959521400764 1.201279417218584 -0.6535345400724698 0.0
C C -0.4873827973047264 1.1779628447398611 -0.6809951749318405 0.0
H H -0.4590727973047264 1.1781328447398611 -0.7291551749318405 0.0
C C -0.40345434639055033 1.1251839549194897 -0.6351794804432586 0.0
H H -0.3299643463905503 1.0966539549194896 -0.6515394804432587 0.0
O O -0.29793272124252795 1.1377647365811145 -0.40420278327143666 0.0
O O -0.0985134960308447 1.1338917298434519 -0.4856543366625545 0.0
O O 0.13164026615029648 0.8354386775764103 -0.2523559196229518 0.0
O O -0.3160481779983144 0.8776398269290245 -0.16779194210925408 0.0
N N -0.10045713016770787 0.8767021626395609 -0.2294573866094537 0.0
N N -0.19885354621785323 0.9862802662658702 -0.3989103077903782 0.0
C C -0.16640177829733252 1.1630245835143218 -0.4344204029731513 0.0
C C -0.05931341437500842 1.1997509056844466 -0.3964118012294795 0.0
C C 0.11836806191107353 1.2233510260926188 -0.4402920222601827 0.0
H H 0.1525780619110735 1.1986210260926187 -0.4775520222601827 0.0
C C -0.19423751086339125 0.7707870648659626 -0.09963358096455095 0.0
H H -0.29264751086339125 0.7796570648659626 -0.07989358096455097 0.0
C C -0.12596400795640608 0.8026906212791738 -0.15996861726466075 0.0
C C -0.013275955450062238 0.7873263597786501 -0.17672649953901928 0.0
C C -0.07779423479771283 1.2459441431528446 -0.35968704641174665 0.0
H H -0.1782842347977128 1.2385141431528448 -0.34094704641174667 0.0
C C -0.18904820738686098 0.8514924053742737 -0.18373187679174943 0.0
C C -0.000524888644736671 0.8382898413194263 -0.23923649447513326 0.0
C C -0.2898244177854751 1.0084195387684292 -0.3403011931361868 0.0
H H -0.3453444177854751 1.0441895387684292 -0.3300711931361869 0.0
C C -0.23732599038832308 0.964507786242241 -0.27998730718189896 0.0
H H -0.2656359903883231 0.972977786242241 -0.232847307181899 0.0
C C -0.1552311020472151 0.9159302739763766 -0.28438025230049413 0.0
C C -0.10045193273413174 0.9138241409704305 -0.3618634484429656 0.0
H H -0.040471932734131744 0.8793941409704306 -0.37372344844296557 0.0
C C -0.10798083057859624 0.9463425258447558 -0.4112530545331203 0.0
H H -0.07623083057859624 0.9397225258447557 -0.45833305453312034 0.0
Cd Cd -0.3405697145601662 -0.5590602930431776 -0.9726691077270505 0.0
O O -0.42079693815947994 -0.4689833603168552 -1.0643003288568202 0.0
O O -0.24099442650517278 -0.49926991188955105 -1.0868899011565352 0.0
O O -0.886822005663158 -0.7659978978652627 -1.147281941660295 0.0
O O -0.43037213782966627 -0.7774627779039373 -1.258128889730068 0.0
N N -0.4862121967176534 -0.6264126880648117 -1.0570770000398837 0.0
N N -0.6332749942116753 -0.7607203982718848 -1.2011957093858967 0.0
C C -0.30449546957329676 -0.4765488380551205 -1.0848526345502678 0.0
C C -0.2648199571053526 -0.4168737575631517 -1.1522252371604693 0.0
C C -0.15511176843276053 -0.4141533714301944 -1.1828396892284243 0.0
H H -0.08020176843276049 -0.44501337143019437 -1.1701996892284243 0.0
C C -0.1260520697778051 -0.38235846468681767 -1.2416276644514457 0.0
H H -0.02714206977780507 -0.38291846468681767 -1.2632876644514457 0.0
C C -0.2324978509670837 -0.3348983623701323 -1.2342440354557775 0.0
C C -0.36490973914021063 -0.34201416783820093 -1.2247219814452908 0.0
C C -0.3914850138015592 -0.3663352987666339 -1.159844175423895 0.0
H H -0.48909501380155934 -0.3643052987666339 -1.1373141754238951 0.0
C C -0.5220567157976497 -0.7895567987354921 -1.25841630898129 0.0
C C -0.7745413369209413 -0.785774347777498 -1.2045632976058718 0.0
C C -0.5599475341692822 -0.6704332724063022 -1.0501693627048403 0.0
H H -0.5883575341692823 -0.6677032724063025 -1.0020393627048405 0.0
C C -0.6024029372695063 -0.7110209448320238 -1.09735832613016 0.0
H H -0.6732129372695064 -0.7393909448320237 -1.07881832613016 0.0
C C -0.5926892587421116 -0.707254823014519 -1.1415169811722172 0.0
C C -0.45227292611936654 -0.6666452159624305 -1.1840490330373077 0.0
H H -0.4239629261193666 -0.6668152159624305 -1.2322090330373079 0.0
C C -0.40994622141214154 -0.6256820360168865 -1.1210594200326303 0.0
H H -0.33645622141214154 -0.5971520360168865 -1.1374194200326302 0.0
O O -0.2640910979551407 -0.6405992306621338 -0.9045967127887402 0.0
O O -0.06671875303348489 -0.6206990118797813 -0.9987637896781094 0.0
O O 0.1513202411707607 -0.33594958213774045 -0.75315022428987 0.0
O O -0.3343735128967238 -0.3674605264630168 -0.6795116616104596 0.0
N N -0.10833900452210883 -0.3697883944222605 -0.7475814581725406 0.0
N N -0.19318928923136505 -0.4984998586156034 -0.8915473259350455 0.0
C C -0.10913285822263047 -0.6597302136726959 -0.9370218005435225 0.0
C C -0.01432313842605354 -0.7026882913784547 -0.9087438605166122 0.0
C C 0.09459477769941553 -0.7220297650772769 -0.9231457195934785 0.0
H H 0.12880477769941556 -0.697299765077277 -0.9604057195934783 0.0
C C -0.17411271818262267 -0.2735921248864721 -0.5909706653149084 0.0
H H -0.2725227181826227 -0.28246212488647215 -0.5712306653149084 0.0
C C -0.14837968070639576 -0.3007023810192917 -0.6535234797721063 0.0
C C 0.00857940973296467 -0.27864602290479734 -0.6663375933085792 0.0
C C -0.11382601832692239 -0.7331178829234716 -0.8469481124262387 0.0
H H -0.21431601832692243 -0.7256878829234716 -0.8282081124262387 0.0
C C -0.18991625759102768 -0.36107426541199045 -0.6763929003886494 0.0
C C -0.0012449585204378243 -0.33867672535191484 -0.7304210784885475 0.0
C C -0.2865988609959909 -0.4990797827946634 -0.8407531070938338 0.0
H H -0.34211886099599087 -0.5348497827946636 -0.8305231070938338 0.0
C C -0.2021138275644332 -0.4678029368013526 -0.7803536982039045 0.0
H H -0.2304238275644332 -0.4762729368013526 -0.7332136982039047 0.0
C C -0.17731493334466725 -0.4162507467071862 -0.7877763145214168 0.0
C C -0.09075763335269627 -0.40888446644144943 -0.8541709113447075 0.0
H H -0.03077763335269628 -0.3744544664414494 -0.8660309113447076 0.0
C C -0.17068278224379185 -0.43901847327890386 -0.9038531118227818 0.0
H H -0.13893278224379185 -0.43239847327890385 -0.9509331118227818 0.0
Cd Cd 0.3024864272502731 -1.0556060112225079 0.5000996957107664 0.0
O O 0.42068819838410687 -0.9622812509214297 0.5648538383025387 0.0
O O 0.230656252547483 -1.003678627410895 0.5826684504595032 0.0
O O 0.8757134280081461 -1.2666505534930994 0.6644223658046725 0.0
O O 0.40650486039645384 -1.2601082042429674 0.7639556414408347 0.0
N N 0.45019754077298885 -1.1242526209944383 0.561796964376434 0.0
N N 0.6695809993512414 -1.2573996717812235 0.7003771410308323 0.0
C C 0.32467692692696837 -0.9599728279862512 0.585782044186212 0.0
C C 0.26417433970837967 -0.9175766071885676 0.6382060599424797 0.0
C C 0.1555281760554023 -0.920332003227845 0.6878605173282145 0.0
H H 0.08061817605540232 -0.9511920032278453 0.6752205173282145 0.0
C C 0.0752833878050011 -0.8809308400023512 0.7469410520209161 0.0
H H -0.02362661219499893 -0.8814908400023512 0.7686010520209161 0.0
C C 0.2062737376458462 -0.8311297602114256 0.7402654684390082 0.0
C C 0.3775787644511282 -0.8307311957326853 0.7234763979535694 0.0
C C 0.4243016344093864 -0.8780987182099488 0.666999558068072 0.0
H H 0.5219116344093865 -0.8760687182099487 0.644469558068072 0.0
C C 0.5574536977457916 -1.2789109886798016 0.7402252670025607 0.0
C C 0.8047321536584396 -1.290747643809592 0.6846512962291696 0.0
C C 0.5479971957885422 -1.1668973925910813 0.5567512461037546 0.0
H H 0.5764071957885422 -1.1641673925910812 0.5086212461037548 0.0
C C 0.60664236534722 -1.1974883203015476 0.5869441225970758 0.0
H H 0.6774523653472202 -1.2258583203015476 0.5684041225970757 0.0
C C 0.5950139747808093 -1.2080262379281503 0.6678474080578014 0.0
C C 0.4877705643853317 -1.1641444287472529 0.6869118674169127 0.0
H H 0.45946056438533167 -1.1643144287472529 0.7350718674169127 0.0
C C 0.417743620172962 -1.11767825546696 0.6260067840641026 0.0
H H 0.34425362017296196 -1.08914825546696 0.6423667840641027 0.0
O O 0.2749594024986044 -1.1406120828647148 0.4154758670513347 0.0
O O 0.08505632396527613 -1.1232523245291195 0.47727154444960335 0.0
O O -0.13351756813475374 -0.8426005263683712 0.25763323983872094 0.0
O O 0.3573242853836985 -0.8803059767432277 0.17795165760366766 0.0
N N 0.10990413834470841 -0.8758610650502966 0.2328505792622841 0.0
N N 0.24304695362838138 -1.0001312450250226 0.38704422445355613 0.0
C C 0.15933156914158014 -1.1636324749077467 0.4351234510508233 0.0
C C 0.038667335944593595 -1.2030430261562555 0.4220077362178721 0.0
C C -0.08296951411605302 -1.2253688594421996 0.437681782085297 0.0
H H -0.11717951411605301 -1.2006388594421997 0.47494178208529697 0.0
C C 0.18097253710017816 -0.7569192122240365 0.09571777529481636 0.0
H H 0.2793825371001782 -0.7657892122240365 0.07597777529481639 0.0
C C 0.12828571202750946 -0.8071889789575558 0.146869981972294 0.0
C C -0.010916355921962858 -0.7808393557699475 0.17750072339930878 0.0
C C 0.102811966008735 -1.240819222532496 0.36267065361968215 0.0
H H 0.20330196600873499 -1.2333892225324963 0.34393065361968217 0.0
C C 0.2352289467160703 -0.8455976905971071 0.1868853043411774 0.0
C C -0.014350012992365562 -0.8344764409715488 0.24352871415686228 0.0
C C 0.25428953129259035 -0.9947695855144539 0.326356858273642 0.0
H H 0.3098095312925903 -1.0305395855144541 0.3161268582736421 0.0
C C 0.2235097384114639 -0.9627191438360168 0.28584760504885937 0.0
H H 0.25181973841146393 -0.9711891438360167 0.2387076050488594 0.0
C C 0.15563382650635538 -0.907911105244362 0.2969596621690063 0.0
C C 0.12673354824806984 -0.9075885661075674 0.35852889462075294 0.0
H H 0.06675354824806984 -0.8731585661075676 0.370388894620753 0.0
C C 0.1630552616299119 -0.9422346790907329 0.4168551043099647 0.0
H H 0.1313052616299119 -0.9356146790907328 0.4639351043099647 0.0
