_cell_length_a 8.39304
_cell_length_b 22.23511
_cell_length_c 18.74218
_cell_angle_alpha 90.0
_cell_angle_beta 94.0312
_cell_angle_gamma 90.0
_symmetry_space_group_name_H-M         'P 1'
_symmetry_Int_Tables_number            1
loop_
_symmetry_equiv_pos_as_xyz
   'x, y, z'
                         
loop_
_atom_site_label
_atom_site_type_symbol
_atom_site_fract_x 
_atom_site_fract_y
_atom_site_fract_z
_atom_site_charge
Cd Cd 0.30960899560203564 0.5565000289713767 0.9736515969173578 0.0
O O 0.40095262523953745 0.4516510783805896 1.0581479776560343 0.0
O O 0.19678945588267294 0.49950789928562267 1.0851867597545544 0.0
O O 0.9225162061718037 0.7766497080947063 1.1703695286534461 0.0
O O 0.4398237895347473 0.7821635380508192 1.2749712625905654 0.0
N N 0.4499764196779074 0.6269277851118022 1.0538331298684616 0.0
N N 0.642691665591646 0.762956853225592 1.1977160522184491 0.0
C C 0.30305678658599 0.46289764127836036 1.0901823188214312 0.0
C C 0.2893197120452022 0.41152876344699413 1.1459331377400201 0.0
C C 0.1251140322955942 0.41713698098510377 1.1656431023913183 0.0
H H 0.05020403229559418 0.44799698098510377 1.153003102391318 0.0
C C 0.12747317358829893 0.3758034944925533 1.241842707913148 0.0
H H 0.028563173588298896 0.3763634944925533 1.263502707913148 0.0
C C 0.2224536999666055 0.34105002171896076 1.2357928808917436 0.0
C C 0.37563042579945544 0.3333647724286916 1.217758227212906 0.0
C C 0.39398313514458283 0.3772751103420871 1.1758484207068765 0.0
H H 0.49159313514458297 0.37524511034208713 1.1533184207068765 0.0
C C 0.5360061280570046 0.7932255459798826 1.2399980433205102 0.0
C C 0.8031047048771727 0.793458652972284 1.1920811289412228 0.0
C C 0.5291962603421181 0.6519390109271167 1.0369450754736367 0.0
H H 0.5576062603421181 0.6492090109271169 0.9888150754736369 0.0
C C 0.6163384521058329 0.7057990237637622 1.0755104227111179 0.0
H H 0.687148452105833 0.7341690237637621 1.0569704227111179 0.0
C C 0.5534579307175304 0.7151068549962378 1.1490165670155972 0.0
C C 0.4722335910611719 0.6714282352460993 1.1805502178869816 0.0
H H 0.44392359106117196 0.6715982352460993 1.2287102178869818 0.0
C C 0.39134410885741205 0.6147991170791379 1.1260586575187992 0.0
H H 0.31785410885741205 0.586269117079138 1.1424186575187993 0.0
O O 0.30100545258797423 0.6360686529929915 0.9073331490846988 0.0
O O 0.12006365762088957 0.6201922275342707 0.9882676605176226 0.0
O O -0.1534135691103618 0.33999584903354063 0.7644940072764207 0.0
O O 0.3223262706580551 0.3723375934353729 0.6827711293321232 0.0
N N 0.09771248538901715 0.3594416530043955 0.7396906595955678 0.0
N N 0.24510691584499578 0.5020263104201831 0.9087366913491489 0.0
C C 0.1451916174594955 0.6451439841249852 0.9466030927397947 0.0
C C 0.0422599788296226 0.6983021515691004 0.8985085187963283 0.0
C C -0.1067740559683493 0.7235320907553163 0.9424652889911932 0.0
H H -0.14098405596834931 0.6988020907553164 0.979725288991193 0.0
C C 0.16714731589484366 0.26617572680476415 0.5968690192831276 0.0
H H 0.26555731589484366 0.2750457268047642 0.5771290192831277 0.0
C C 0.16758688830292934 0.2916061937667095 0.6453702263013101 0.0
C C 0.0013723083152764012 0.2892390051738079 0.6609516111472293 0.0
C C 0.09579408907414629 0.7411491649398311 0.8406380782324143 0.0
H H 0.19628408907414632 0.733719164939831 0.8218980782324143 0.0
C C 0.20858645972354553 0.3532892031623848 0.6873577625671203 0.0
C C -0.03774215910887063 0.3418064517829243 0.7389576054353219 0.0
C C 0.2547091753391519 0.5120464401674886 0.8303528299043599 0.0
H H 0.3102291753391519 0.5478164401674886 0.8201228299043599 0.0
C C 0.22267790245415026 0.4662056084108067 0.7831654003208396 0.0
H H 0.25098790245415026 0.4746756084108067 0.7360254003208397 0.0
C C 0.16714211658007952 0.4141616573153414 0.7785084380798012 0.0
C C 0.0804019017802044 0.4136863236710462 0.8541098398415137 0.0
H H 0.020421901780204418 0.37925632367104617 0.8659698398415138 0.0
C C 0.1288091751274892 0.4496945860385383 0.9083535848812974 0.0
H H 0.09705917512748918 0.4430745860385383 0.9554335848812974 0.0
Cd Cd -0.3041162301521523 1.0516704078575323 -0.4838459140605885 0.0
O O -0.43508300980843645 0.9497163259977849 -0.5512532485359616 0.0
O O -0.19249252561319022 1.0162002832339379 -0.5749174362700393 0.0
O O -0.8809528278045572 1.26178299565368 -0.6596577460193861 0.0
O O -0.39351220357533157 1.272630586358495 -0.7536087057550811 0.0
N N -0.4324502888159094 1.1219151283489677 -0.5754176408470474 0.0
N N -0.6393522551665672 1.2549825663395078 -0.6911608541199569 0.0
C C -0.27662577640501707 0.9618306907103303 -0.5978236024669564 0.0
C C -0.28185646276991405 0.9112910475936482 -0.6496961265607848 0.0
C C -0.13362979862121058 0.9143438469242906 -0.6694717343469971 0.0
H H -0.05871979862121057 0.9452038469242908 -0.6568317343469972 0.0
C C -0.10439497601005075 0.87830994741491 -0.7368123044185333 0.0
H H -0.005484976010050733 0.87886994741491 -0.7584723044185332 0.0
C C -0.1902672413431811 0.8327370315707107 -0.7592572816201714 0.0
C C -0.3218227491143366 0.8395887334217071 -0.7092006106400327 0.0
C C -0.35798079677957356 0.876902935787862 -0.6615384088671925 0.0
H H -0.45559079677957365 0.8748729357878621 -0.6390084088671926 0.0
C C -0.5192385548771086 1.2937453387792783 -0.7506302616652629 0.0
C C -0.7734661099097355 1.298327577731453 -0.6899193926562279 0.0
C C -0.5823119485517902 1.1526420419035184 -0.5431289596521729 0.0
H H -0.6107219485517903 1.1499120419035183 -0.494998959652173 0.0
C C -0.6439870764203582 1.202103217716562 -0.5825866331113541 0.0
H H -0.7147970764203584 1.230473217716562 -0.564046633111354 0.0
C C -0.6065751519523177 1.2099012505220865 -0.65279967410274 0.0
C C -0.4923993090199601 1.1594568416616793 -0.6695306102717861 0.0
H H -0.46408930901996 1.1596268416616793 -0.717690610271786 0.0
C C -0.42317229979180615 1.1282578588225678 -0.633134267933251 0.0
H H -0.3496822997918061 1.0997278588225678 -0.6494942679332512 0.0
O O -0.2718148110066419 1.1407716707303936 -0.41457487093072554 0.0
O O -0.10540606774778283 1.1221247406596084 -0.4766116548592451 0.0
O O 0.159051633400175 0.8481960943112279 -0.2535940687631138 0.0
O O -0.3373530024524163 0.8708244487241088 -0.18727903895303655 0.0
N N -0.1128508593650212 0.8694478353796411 -0.2394004560018214 0.0
N N -0.2144208176588332 0.9862980796763137 -0.3960911671576517 0.0
C C -0.17228885730705834 1.1550743460399409 -0.4443124295833182 0.0
C C -0.06546185889030579 1.2018569662110474 -0.4159376640685275 0.0
C C 0.10192212566227667 1.2084996287608196 -0.4451502073799862 0.0
H H 0.13613212566227667 1.1837696287608197 -0.4824102073799862 0.0
C C -0.21731517752921403 0.7658151899092247 -0.09534027284687646 0.0
H H -0.315725177529214 0.7746851899092247 -0.0756002728468765 0.0
C C -0.15418471771166134 0.8079938310109852 -0.14909592362130353 0.0
C C -0.003284938118032986 0.7833467939334692 -0.1624707602512383 0.0
C C -0.09757566736014037 1.2461316260205797 -0.3582149752024718 0.0
H H -0.19806566736014034 1.2387016260205799 -0.33947497520247183 0.0
C C -0.21260268074634536 0.8504175870191818 -0.186777067733123 0.0
C C 0.042621874791802315 0.8383181776299368 -0.21770145797626053 0.0
C C -0.2539128093330658 1.0159759388255083 -0.31887892433810583 0.0
H H -0.30943280933306583 1.0517459388255086 -0.3086489243381059 0.0
C C -0.20166368051344252 0.9669086052175203 -0.27775580444703474 0.0
H H -0.22997368051344255 0.9753786052175203 -0.23061580444703475 0.0
C C -0.1696867539270965 0.9207570963269399 -0.2939430029263738 0.0
C C -0.074322796242271 0.9078758233960842 -0.36675959544823045 0.0
H H -0.014342796242270998 0.8734458233960843 -0.3786195954482305 0.0
C C -0.13276539436865706 0.9530010928135257 -0.39954374568625234 0.0
H H -0.10101539436865706 0.9463810928135257 -0.44662374568625235 0.0
Cd Cd -0.3096624712884922 -0.5539327163556488 -0.9960894952375349 0.0
O O -0.43519966678852817 -0.46161041307867134 -1.0693300988973105 0.0
O O -0.19194385917200102 -0.5125006332189777 -1.0838886175369296 0.0
O O -0.8636979047496555 -0.7724991517507006 -1.158037467665636 0.0
O O -0.41475555230803823 -0.7658518895729955 -1.2584365276660336 0.0
N N -0.47867961953319277 -0.6248439198169535 -1.0614329014624344 0.0
N N -0.6466074177714844 -0.7605697898431123 -1.1949016700495472 0.0
C C -0.31442466484417647 -0.4598789850174374 -1.0884157572733224 0.0
C C -0.2748616195560898 -0.42891686971413423 -1.148557375788914 0.0
C C -0.15330319608493817 -0.4115430127355109 -1.1855827149209046 0.0
H H -0.07839319608493815 -0.44240301273551097 -1.1729427149209044 0.0
C C -0.0951847418531725 -0.38172986920531304 -1.2314422912973837 0.0
H H 0.003725258146827539 -0.38228986920531305 -1.253102291297384 0.0
C C -0.19224451074201554 -0.33560723386238234 -1.2484635743312076 0.0
C C -0.375037289191199 -0.3409994596605986 -1.2081490182207397 0.0
C C -0.38909322130623336 -0.3653028128341678 -1.1620405089071595 0.0
H H -0.48670322130623356 -0.36327281283416785 -1.1395105089071595 0.0
C C -0.5435039522420887 -0.7934596641830357 -1.251145006420944 0.0
C C -0.8117135832149172 -0.7970533860481458 -1.1990797973655554 0.0
C C -0.5376902562587811 -0.6501100805479255 -1.0326140085131583 0.0
H H -0.566100256258781 -0.6473800805479256 -0.9844840085131584 0.0
C C -0.5991846617823152 -0.6966400548084586 -1.0808786817430076 0.0
H H -0.6699946617823151 -0.7250100548084585 -1.0623386817430076 0.0
C C -0.5579810668974515 -0.715250528557189 -1.1614776307211316 0.0
C C -0.48367690344088765 -0.6716968951300847 -1.1709834804686672 0.0
H H -0.4553669034408877 -0.6718668951300847 -1.2191434804686674 0.0
C C -0.4405687070288889 -0.6140941414921425 -1.1305393953702614 0.0
H H -0.3670787070288889 -0.5855641414921424 -1.1468993953702615 0.0
O O -0.2701173495916516 -0.6520130588535723 -0.9020846362328315 0.0
O O -0.09080633623480316 -0.6323955962149546 -0.9974839334179424 0.0
O O 0.17514779820312432 -0.34072338780971156 -0.7533659399204016 0.0
O O -0.3615587606846509 -0.3771400384370065 -0.6632739372466876 0.0
N N -0.1344716765682784 -0.3787402460106218 -0.7332814520978753 0.0
N N -0.2075089898092169 -0.5003018871056221 -0.9037793157722255 0.0
C C -0.13885557278707863 -0.6438346963503888 -0.9457148645814145 0.0
C C -0.03410992590120536 -0.7115694672157036 -0.922591084609434 0.0
C C 0.10145133297485673 -0.7211695573027174 -0.9268387520226521 0.0
H H 0.13566133297485677 -0.6964395573027174 -0.9640987520226519 0.0
C C -0.2157374292970656 -0.25815342822470266 -0.5911204304915858 0.0
H H -0.3141474292970656 -0.26702342822470265 -0.5713804304915858 0.0
C C -0.1593258987387161 -0.30796218641217626 -0.6437065858826876 0.0
C C 0.009180067914248424 -0.2897571370432492 -0.6577667080176307 0.0
C C -0.07923884366528351 -0.7436950786831554 -0.8563326520947238 0.0
H H -0.17972884366528355 -0.7362650786831554 -0.8375926520947238 0.0
C C -0.2411997276740559 -0.3554359108725463 -0.676794411519436 0.0
C C 0.012674822324427275 -0.3421795413472315 -0.7315504853206509 0.0
C C -0.24614658869532746 -0.506737119612143 -0.8395885820287284 0.0
H H -0.3016665886953274 -0.542507119612143 -0.8293585820287285 0.0
C C -0.2428228908079238 -0.4613329391876318 -0.7784344532460978 0.0
H H -0.2711328908079238 -0.4698029391876318 -0.731294453246098 0.0
C C -0.14968466541875147 -0.4008231525854809 -0.7751775998461878 0.0
C C -0.12837154943638965 -0.4101203997968676 -0.8615098956199236 0.0
H H -0.06839154943638968 -0.3756903997968676 -0.8733698956199237 0.0
C C -0.1453108649049899 -0.4441582164808154 -0.8975975611908583 0.0
H H -0.11356086490498987 -0.4375382164808153 -0.9446775611908583 0.0
Cd Cd 0.342789930888401 -1.063752890636778 0.4837003204710986 0.0
O O 0.46142015742553266 -0.9575655442094311 0.5623153586762049 0.0
O O 0.22336521553705677 -1.002040028642002 0.5756539994552369 0.0
O O 0.8915531325463899 -1.2779213721692493 0.6552147762412855 0.0
O O 0.4078052874999219 -1.276480585781269 0.7509008462571304 0.0
N N 0.48228262347084455 -1.1311254591215028 0.5642289740756489 0.0
N N 0.6386304491747812 -1.249880389341318 0.6960795045466615 0.0
C C 0.32727989310729716 -0.9545680353172754 0.589502586310954 0.0
C C 0.3003870415691181 -0.9172470283492578 0.6575233163069276 0.0
C C 0.12455937662033997 -0.9324183097681776 0.6729918613224949 0.0
H H 0.04964937662033998 -0.9632783097681777 0.6603518613224949 0.0
C C 0.11022158408695253 -0.8826296615024232 0.7249431951509181 0.0
H H 0.011311584086952507 -0.8831896615024232 0.7466031951509181 0.0
C C 0.21364612123589924 -0.8388599266031397 0.7599206758459862 0.0
C C 0.3754483701038441 -0.8306771841624749 0.7224918317714957 0.0
C C 0.3882982553113828 -0.8822898387073054 0.6621584376887054 0.0
H H 0.48590825531138293 -0.8802598387073054 0.6396284376887055 0.0
C C 0.5636850718941462 -1.2917115448496934 0.7489737397499712 0.0
C C 0.8210967517327392 -1.2801556391530944 0.6984372181741416 0.0
C C 0.5435212765710637 -1.1634617904743412 0.5560694379584039 0.0
H H 0.5719312765710639 -1.160731790474341 0.507939437958404 0.0
C C 0.6019125700022206 -1.2018883513669703 0.5935941613432959 0.0
H H 0.6727225700022208 -1.2302583513669703 0.5750541613432958 0.0
C C 0.5637691497565807 -1.20150592132278 0.646106634041249 0.0
C C 0.44933227771437667 -1.1712585771878596 0.6803552280552043 0.0
H H 0.42102227771437667 -1.1714285771878596 0.7285152280552042 0.0
C C 0.39097000912711116 -1.1347957517700116 0.6212426120094641 0.0
H H 0.3174800091271111 -1.1062657517700116 0.6376026120094642 0.0
O O 0.2595210899346139 -1.1525952409517315 0.3994645217586585 0.0
O O 0.07110728249657434 -1.1323816973313943 0.4777562229618326 0.0
O O -0.15715326189493878 -0.8291144240028234 0.2739910201942479 0.0
O O 0.36002036615821226 -0.8751144104698422 0.18707755894402026 0.0
N N 0.13473985589795498 -0.8712794586928025 0.23476004595273506 0.0
N N 0.24984082151412687 -0.9999310933482469 0.4093309789085138 0.0
C C 0.15557767301782133 -1.1642956548389745 0.4309510125271631 0.0
C C 0.0484385370724006 -1.1986039473703298 0.3990028716432244 0.0
C C -0.1077561059994985 -1.2247272795237238 0.42980865938608975 0.0
H H -0.14196610599949847 -1.199997279523724 0.46706865938608977 0.0
C C 0.1771099090111209 -0.7760427172441978 0.08686910738119137 0.0
H H 0.2755199090111209 -0.7849127172441979 0.06712910738119139 0.0
C C 0.14078819243571314 -0.8126324576903873 0.14221254030483865 0.0
C C 0.0062135077837879495 -0.7778091495480336 0.17335238092449212 0.0
C C 0.09702394876915227 -1.2331586669192085 0.3644752902774136 0.0
H H 0.19751394876915226 -1.2257286669192085 0.3457352902774136 0.0
C C 0.23922380031989735 -0.8550745631873068 0.18743771104638351 0.0
C C -0.032551616997277044 -0.8327122614399509 0.24049475174615276 0.0
C C 0.28156207578095127 -1.001942281009873 0.3288652180676888 0.0
H H 0.3370820757809513 -1.0377122810098731 0.3186352180676889 0.0
C C 0.2172096459299369 -0.9633559725224471 0.263209745637535 0.0
H H 0.24551964592993694 -0.9718259725224471 0.21606974563753503 0.0
C C 0.13467055803815076 -0.9066718613200241 0.29776768941304266 0.0
C C 0.11987379973769759 -0.8936856716293871 0.3579583281436856 0.0
H H 0.0598937997376976 -0.8592556716293872 0.3698183281436856 0.0
C C 0.16720843607500296 -0.9383842664889253 0.40906486235605866 0.0
H H 0.13545843607500296 -0.9317642664889252 0.4561448623560586 0.0
