_cell_length_a 8.39304
_cell_length_b 22.23511
_cell_length_c 18.74218
_cell_angle_alpha 90.0
_cell_angle_beta 94.0312
_cell_angle_gamma 90.0
_symmetry_space_group_name_H-M         'P 1'
_symmetry_Int_Tables_number            1
loop_
_symmetry_equiv_pos_as_xyz
   'x, y, z'
                         
loop_
_atom_site_label
_atom_site_type_symbol
_atom_site_fract_x 
_atom_site_fract_y
_atom_site_fract_z
_atom_site_charge
Cd Cd 0.2991141975533459 0.565644601588301 1.0004093894256154 0.0
O O 0.4165806861683408 0.466042802654777 1.0474423915668059 0.0
O O 0.22504728737019994 0.5128321046674387 1.0924350291166063 0.0
O O 0.9063298862922029 0.7818779548915633 1.1747854139261473 0.0
O O 0.4253725826279103 0.7719028775410832 1.2499780740202764 0.0
N N 0.4795490525891086 0.6313045862416837 1.0747680982245622 0.0
N N 0.6429703687565185 0.7578458837552977 1.216563704733477 0.0
C C 0.27811355596672566 0.4631207728291677 1.0875279841290226 0.0
C C 0.2534526221620876 0.41848964387311244 1.1385956599266667 0.0
C C 0.11689104920248855 0.4188752412054596 1.193959726929628 0.0
H H 0.0419810492024885 0.4497352412054596 1.1813197269296278 0.0
C C 0.08348580534180021 0.38934433097391136 1.23637153399183 0.0
H H -0.015424194658199811 0.38990433097391136 1.25803153399183 0.0
C C 0.178656499004778 0.33092821643458054 1.2474853391150484 0.0
C C 0.33904652463710583 0.32451133323186904 1.2021638182734389 0.0
C C 0.394546931135691 0.37421271158405783 1.1651221738229656 0.0
H H 0.4921569311356911 0.37218271158405786 1.1425921738229656 0.0
C C 0.5281026967245062 0.7871236300679778 1.2510203928655819 0.0
C C 0.7895041035096445 0.7967732508600045 1.2080229662994382 0.0
C C 0.5452008254463299 0.6482263246634723 1.035126654710469 0.0
H H 0.5736108254463299 0.6454963246634724 0.9869966547104692 0.0
C C 0.6220340371448035 0.7087538335725974 1.0854367217859027 0.0
H H 0.6928440371448036 0.7371238335725974 1.0668967217859027 0.0
C C 0.5886405171738416 0.704657707056019 1.1576934934531737 0.0
C C 0.508292930063189 0.6676477142061428 1.1952562854483662 0.0
H H 0.47998293006318904 0.6678177142061428 1.2434162854483661 0.0
C C 0.4195049720077096 0.6113936068834833 1.127804094769667 0.0
H H 0.3460149720077096 0.5828636068834834 1.1441640947696672 0.0
O O 0.3068551375238162 0.6331349806157396 0.9087942025809653 0.0
O O 0.09500763190081886 0.6357416843981334 0.9940837978612916 0.0
O O -0.1622970153330417 0.33506072492156996 0.7540226958023504 0.0
O O 0.3347972790745676 0.3799914525424099 0.6901015529818233 0.0
N N 0.11264499889885887 0.370452912153535 0.739694085130953 0.0
N N 0.23369690239402371 0.4955949472755305 0.8817740306495986 0.0
C C 0.15133522334235622 0.654342732546921 0.9275896352397502 0.0
C C 0.04543239676562206 0.7141736180199673 0.9233111242592581 0.0
C C -0.12324427922783908 0.7076412596145578 0.9301007988125163 0.0
H H -0.15745427922783914 0.6829112596145579 0.9673607988125162 0.0
C C 0.16100286812155357 0.27469692534509554 0.5934175849872944 0.0
H H 0.25941286812155356 0.28356692534509553 0.5736775849872944 0.0
C C 0.1749488557088344 0.31318353621244754 0.6416276878622085 0.0
C C 0.0005718391735478019 0.29281585804179483 0.672486023518829 0.0
C C 0.10477449799835936 0.7459944657347265 0.8510964339153154 0.0
H H 0.20526449799835939 0.7385644657347264 0.8323564339153154 0.0
C C 0.23576002031101706 0.35995151537999387 0.693885018036669 0.0
C C -0.06714816927576302 0.31932630063664685 0.7217575980789295 0.0
C C 0.27402106568512535 0.49710394326938323 0.8171450100636171 0.0
H H 0.3295410656851253 0.5328739432693834 0.8069150100636171 0.0
C C 0.22180200039956757 0.4635100523426301 0.775085337884673 0.0
H H 0.2501120003995676 0.4719800523426301 0.7279453378846731 0.0
C C 0.1321263453268262 0.4090964018346595 0.7876598809615851 0.0
C C 0.11865496174483704 0.39446586852224097 0.8477195534291174 0.0
H H 0.058674961744837065 0.36003586852224095 0.8595795534291176 0.0
C C 0.17409754802223434 0.4388643988254363 0.9041659502689441 0.0
H H 0.14234754802223432 0.43224439882543625 0.9512459502689441 0.0
Cd Cd -0.2849064990648268 1.0536860053573125 -0.4799157059005782 0.0
O O -0.4520770675299185 0.9679198571359843 -0.5663491205419551 0.0
O O -0.19691496395177388 0.9939841903852354 -0.5948698322558875 0.0
O O -0.9109913584853032 1.2773545605604923 -0.6640513807240547 0.0
O O -0.43408371998666584 1.2756253598534681 -0.7551532638195017 0.0
N N -0.4342576053583352 1.1236922882446074 -0.5776161287155255 0.0
N N -0.6678066854046757 1.2507072845687606 -0.7077694435820615 0.0
C C -0.33063361144028514 0.9601662291830688 -0.5773248674290715 0.0
C C -0.24874689157984337 0.9098983110318501 -0.6482343433801783 0.0
C C -0.14505378558560517 0.9157481424457876 -0.6916031905058506 0.0
H H -0.07014378558560518 0.9466081424457878 -0.6789631905058506 0.0
C C -0.10516768943135774 0.873593744898162 -0.7205652987029838 0.0
H H -0.006257689431357712 0.874153744898162 -0.7422252987029838 0.0
C C -0.225921562368843 0.8269668037011648 -0.7621502643514598 0.0
C C -0.3391712067319047 0.833926541409545 -0.7017755038340431 0.0
C C -0.3717814171382304 0.8761602857743535 -0.6539316393124894 0.0
H H -0.46939141713823046 0.8741302857743534 -0.6314016393124894 0.0
C C -0.5354251313375558 1.278186803612856 -0.7615234993259458 0.0
C C -0.7826011897775644 1.2949847173346032 -0.6913340253185948 0.0
C C -0.5730857157702329 1.1581818001591708 -0.5521066418377861 0.0
H H -0.6014957157702331 1.1554518001591707 -0.5039766418377862 0.0
C C -0.6401198314084976 1.2177608470420267 -0.5946440769239033 0.0
H H -0.7109298314084977 1.2461308470420267 -0.5761040769239032 0.0
C C -0.5867934573693797 1.215842418097051 -0.6421957874992626 0.0
C C -0.48312125889733815 1.1798678473364193 -0.677107624769891 0.0
H H -0.4548112588973381 1.1800378473364193 -0.7252676247698909 0.0
C C -0.43244946135471396 1.1148252688888325 -0.620375247199221 0.0
H H -0.35895946135471396 1.0862952688888325 -0.6367352471992213 0.0
O O -0.26364342906189453 1.145723072733167 -0.4068602753668937 0.0
O O -0.05378780857053083 1.120881232148674 -0.47977484461281406 0.0
O O 0.15483925765517184 0.8506671654989161 -0.2543541427438969 0.0
O O -0.3259894698016727 0.8680167700587161 -0.16456909270473463 0.0
N N -0.1355748414505473 0.8556574545923107 -0.23881255650173094 0.0
N N -0.23844547457721324 1.0019202098235456 -0.4010826244566651 0.0
C C -0.1461547467450954 1.1564370997782896 -0.44238509850542607 0.0
C C -0.015744383565394492 1.19719347351599 -0.41881605485035184 0.0
C C 0.13127407146599257 1.2185480383741323 -0.4451133082693934 0.0
H H 0.16548407146599256 1.1938180383741324 -0.48237330826939334 0.0
C C -0.2027828275875827 0.7729903264565264 -0.09704124735177169 0.0
H H -0.3011928275875827 0.7818603264565265 -0.07730124735177171 0.0
C C -0.14306554027541324 0.8072021038477492 -0.14065124853790947 0.0
C C 0.009011117796537299 0.7784354555181437 -0.18430741275848092 0.0
C C -0.11275133832082757 1.253226938106242 -0.3470078535635989 0.0
H H -0.21324133832082756 1.2457969381062421 -0.32826785356359894 0.0
C C -0.21384738678481385 0.8505140795506544 -0.17257709347772918 0.0
C C 0.015712232593312773 0.8352929639359965 -0.23103389063964241 0.0
C C -0.25411579392201095 1.0071161742638093 -0.3148401405921008 0.0
H H -0.30963579392201096 1.0428861742638094 -0.3046101405921009 0.0
C C -0.19165911842586505 0.9752327521807607 -0.2637932545880964 0.0
H H -0.21996911842586508 0.9837027521807606 -0.2166532545880964 0.0
C C -0.16709571996532588 0.9216822406445183 -0.29278403867482405 0.0
C C -0.11816681753062674 0.8934378334991435 -0.3586073136583995 0.0
H H -0.05818681753062674 0.8590078334991436 -0.37046731365839947 0.0
C C -0.1438329002011762 0.94859018698475 -0.40822215643616394 0.0
H H -0.1120829002011762 0.9419701869847499 -0.4553021564361639 0.0
Cd Cd -0.3003001560055574 -0.5439192041864016 -0.9788734319504341 0.0
O O -0.44450912745548304 -0.4676085018273557 -1.0545748363614176 0.0
O O -0.1970777954396933 -0.5035274721372595 -1.0652601293562696 0.0
O O -0.8585807450496373 -0.7755278770131239 -1.1693149646278056 0.0
O O -0.42854922611877244 -0.7796111550371906 -1.2538797886436825 0.0
N N -0.46820399238080285 -0.6119355327042797 -1.0683417280728011 0.0
N N -0.6314053460905961 -0.7577325397335933 -1.20373607947181 0.0
C C -0.3001546025196037 -0.4719797734816456 -1.0844267975769752 0.0
C C -0.26503151639143524 -0.40906897706973927 -1.143678136337904 0.0
C C -0.15018351991937354 -0.42632764149665014 -1.1961873635936349 0.0
H H -0.0752735199193735 -0.4571876414966502 -1.1835473635936349 0.0
C C -0.11251096653457836 -0.3788727849342868 -1.2289259202843914 0.0
H H -0.013600966534578339 -0.3794327849342868 -1.2505859202843914 0.0
C C -0.22375516960015063 -0.3381792040623489 -1.2378144851895694 0.0
C C -0.3303865108317854 -0.3393738170119245 -1.208978905400981 0.0
C C -0.4045758788308706 -0.3738418600120745 -1.1640384210012067 0.0
H H -0.5021858788308707 -0.3718118600120745 -1.1415084210012068 0.0
C C -0.5687730743063182 -0.783311006149727 -1.2494768705712465 0.0
C C -0.806528054779523 -0.783095153762353 -1.1999131525495912 0.0
C C -0.5599168106992705 -0.6681919365459337 -1.053303743633513 0.0
H H -0.5883268106992705 -0.6654619365459338 -1.0051737436335133 0.0
C C -0.6117931545875253 -0.7015340385899737 -1.095537708498523 0.0
H H -0.6826031545875254 -0.7299040385899734 -1.076997708498523 0.0
C C -0.60917782107532 -0.7156548184308477 -1.153466820507642 0.0
C C -0.46485293282947227 -0.656211112618523 -1.1804007901354847 0.0
H H -0.43654293282947226 -0.656381112618523 -1.228560790135485 0.0
C C -0.4064929793498957 -0.617412675567854 -1.1460155581451474 0.0
H H -0.3330029793498957 -0.5888826755678539 -1.1623755581451476 0.0
O O -0.2870160753814974 -0.6339229985286273 -0.9021164071327363 0.0
O O -0.08859155105545483 -0.6143099215700628 -0.9981507977606497 0.0
O O 0.11895281304157165 -0.33746023236976963 -0.778383583889712 0.0
O O -0.31568433548805086 -0.36544189080491946 -0.6832714206547648 0.0
N N -0.13717981196047196 -0.3562853890214264 -0.7302836945330473 0.0
N N -0.2390554006653706 -0.49390267794353515 -0.8996810342139551 0.0
C C -0.17090235888125108 -0.6586535525835189 -0.9509483563509037 0.0
C C -0.03750899296999689 -0.7062137554504346 -0.911542231795246 0.0
C C 0.09081454973422205 -0.7205314944063764 -0.9372111256381256 0.0
H H 0.1250245497342221 -0.6958014944063765 -0.9744711256381255 0.0
C C -0.17097786518020633 -0.2604789727065581 -0.597399208785749 0.0
H H -0.2693878651802063 -0.2693489727065581 -0.5776592087857491 0.0
C C -0.12532998215733415 -0.29485638553206095 -0.6538656492680502 0.0
C C 0.009591977116448033 -0.29251058929054646 -0.6647964245381356 0.0
C C -0.12473071461436797 -0.7471144092270781 -0.8573094258076719 0.0
H H -0.225220714614368 -0.7396844092270781 -0.8385694258076719 0.0
C C -0.22006791661325967 -0.3390208295270588 -0.6863807906073304 0.0
C C 0.029013837011358047 -0.3238856946437921 -0.7414978458181505 0.0
C C -0.25269740006369007 -0.49234057016679356 -0.8167742113714925 0.0
H H -0.3082174000636901 -0.5281105701667937 -0.8065442113714925 0.0
C C -0.18784871661161298 -0.46045943974161363 -0.7700929697492941 0.0
H H -0.21615871661161298 -0.4689294397416136 -0.7229529697492941 0.0
C C -0.13425122808310958 -0.41449223836172894 -0.7751023755088029 0.0
C C -0.10995084151802637 -0.4094288354895519 -0.8571945898755509 0.0
H H -0.04997084151802639 -0.37499883548955193 -0.8690545898755511 0.0
C C -0.11530749257051306 -0.4425873294688764 -0.9200020516398852 0.0
H H -0.08355749257051305 -0.43596732946887634 -0.9670820516398853 0.0
Cd Cd 0.32088277277740357 -1.0590292356480842 0.47202281227966053 0.0
O O 0.45263435594932033 -0.9701905456339122 0.5604820178309889 0.0
O O 0.22062862834804067 -1.0136467576290618 0.5843159176070164 0.0
O O 0.8859642761004961 -1.26647431949221 0.6658543333941858 0.0
O O 0.39676327010080703 -1.2582804225420245 0.7658644341488029 0.0
N N 0.48825075731084705 -1.1228300930084885 0.5731468775418069 0.0
N N 0.6536694010137404 -1.2578869939347803 0.7162773177161811 0.0
C C 0.31448151943318575 -0.9691796449703336 0.5740699934795903 0.0
C C 0.2581529627415154 -0.9282543848282526 0.6481429548948002 0.0
C C 0.13985221180971197 -0.9204503883661082 0.6958866902232127 0.0
H H 0.06494221180971198 -0.9513103883661083 0.6832466902232127 0.0
C C 0.07294797289953998 -0.8895552135368978 0.7343482665970447 0.0
H H -0.02596202710046002 -0.8901152135368978 0.7560082665970447 0.0
C C 0.22400521827501033 -0.8362116927749262 0.7409423240361138 0.0
C C 0.3611752058944817 -0.8447066007668914 0.7242183424544979 0.0
C C 0.38393510933029984 -0.8820041250819983 0.6718430893135019 0.0
H H 0.4815451093303 -0.8799741250819983 0.6493130893135018 0.0
C C 0.5534577654660972 -1.2770123028098073 0.7446436222412802 0.0
C C 0.7910840461441289 -1.292251144646035 0.7102535009247134 0.0
C C 0.5511620324214149 -1.1522057175578577 0.5427566485940388 0.0
H H 0.579572032421415 -1.1494757175578576 0.494626648594039 0.0
C C 0.5889720398846741 -1.2138801113623439 0.585730150757959 0.0
H H 0.6597820398846743 -1.2422501113623439 0.567190150757959 0.0
C C 0.5546846448127345 -1.2069383434991554 0.6453128510338646 0.0
C C 0.4563770207804438 -1.1799843039428668 0.6703918324338072 0.0
H H 0.42806702078044373 -1.1801543039428668 0.718551832433807 0.0
C C 0.4032189414758935 -1.1205207777461184 0.6362317972244959 0.0
H H 0.32972894147589343 -1.0919907777461184 0.652591797224496 0.0
O O 0.24460081448501242 -1.13990833310875 0.411260063307572 0.0
O O 0.08977350105469283 -1.1102335299906791 0.48806881181844286 0.0
O O -0.15410599705679537 -0.8353309974857213 0.2719939275067559 0.0
O O 0.30634458310267465 -0.8760775907067064 0.16693112524730191 0.0
N N 0.14192378495634866 -0.8739593048071473 0.22685957140672908 0.0
N N 0.22197209205951998 -0.9834409421087398 0.3913952471232356 0.0
C C 0.1308141182973454 -1.1475543879668981 0.4342438146146613 0.0
C C 0.01887170684325788 -1.2120155360383422 0.41884748786997533 0.0
C C -0.06981022718675105 -1.210044901826691 0.4415624042107675 0.0
H H -0.10402022718675105 -1.185314901826691 0.4788224042107675 0.0
C C 0.18852225065738754 -0.7737195875970843 0.10187297623323434 0.0
H H 0.28693225065738753 -0.7825895875970843 0.08213297623323437 0.0
C C 0.13876448062219734 -0.8110211399224111 0.1329008432991004 0.0
C C 0.022662189799406138 -0.7756509218809242 0.16568894443215615 0.0
C C 0.07312013512403738 -1.2365501239986212 0.36568662857430695 0.0
H H 0.17361013512403736 -1.2291201239986214 0.34694662857430697 0.0
C C 0.24812081421479018 -0.8411433243728681 0.17665877776911745 0.0
C C -0.03195978756855827 -0.8342670014181224 0.22006148614675447 0.0
C C 0.29754251548602517 -0.9962885351035728 0.34342591820674623 0.0
H H 0.3530625154860252 -1.032058535103573 0.33319591820674627 0.0
C C 0.23438951447730932 -0.9764080067210592 0.26726623139001726 0.0
H H 0.2626995144773093 -0.9848780067210592 0.22012623139001727 0.0
C C 0.1309925334102167 -0.9221883998969969 0.30020904892357575 0.0
C C 0.0798878841910553 -0.8941821484738137 0.36013420975552346 0.0
H H 0.01990788419105531 -0.8597521484738138 0.3719942097555235 0.0
C C 0.13678057364083682 -0.9589302304653785 0.40649136809247716 0.0
H H 0.10503057364083682 -0.9523102304653784 0.45357136809247706 0.0
