_cell_length_a 27.1013
_cell_length_b 9.27321
_cell_length_c 16.979215
_cell_angle_alpha 90.0
_cell_angle_beta 99.1565
_cell_angle_gamma 90.0
_symmetry_space_group_name_H-M         'P 1'
_symmetry_Int_Tables_number            1
loop_
_symmetry_equiv_pos_as_xyz
   'x, y, z'
                         
loop_
_atom_site_label
_atom_site_type_symbol
_atom_site_fract_x 
_atom_site_fract_y
_atom_site_fract_z
_atom_site_charge
Zn1 Zn1 -0.1730961 0.797253 -0.34232817 0.0
Zn2 Zn2 -0.17236711 0.393693 -0.54948817 0.0
O1 O1 -0.232796 0.6575118 -0.306891 0.0
O2 O2 -0.177837 0.63352 -0.4249112 0.0
O3 O3 -0.207947 0.41482 -0.4583412 0.0
O4 O4 -0.302018 0.2836219 -0.4008412 0.0
O5 O5 -0.365228 0.41192 -0.4662013 0.0
O6 O6 -0.318207 0.43312 -0.2525511 0.0
O7 O7 -0.363679 0.62342 -0.2285813 0.0
O8 O8 -0.317437 0.9448119 -0.3742912 0.0
O9 O9 -0.240687 0.89402 -0.3987012 0.0
N1 N1 -0.112319 0.69582 -0.2653814 0.0
N2 N2 0.100198 0.43872 -0.0041314 0.0
C1 C1 -0.242039 0.53202 -0.3581014 0.0
H1A H1A -0.2375 0.4445 -0.3254 0.0
C2 C2 -0.296559 0.54213 -0.3984014 0.0
H2A H2A -0.2969 0.5992 -0.4471 0.0
C3 C3 -0.320829 0.63603 -0.3397414 0.0
H3A H3A -0.3495 0.6888 -0.3683 0.0
C4 C4 -0.277909 0.74012 -0.3102514 0.0
H4A H4A -0.281 0.7737 -0.2565 0.0
C5 C5 -0.206069 0.52913 -0.4182315 0.0
C6 C6 -0.323431 0.40183 -0.4230215 0.0
C7 C7 -0.335529 0.55643 -0.2676515 0.0
C8 C8 -0.277699 0.87113 -0.3661815 0.0
C9 C9 -0.1069511 0.55683 -0.2488818 0.0
H9A H9A -0.1314 0.4938 -0.2731 0.0
C10 C10 -0.0669112 0.50003 -0.1975419 0.0
H10A H10A -0.065 0.4012 -0.1882 0.0
C11 C11 -0.029581 0.59063 -0.1598317 0.0
C12 C12 -0.0357312 0.73673 -0.17642 0.0
H12A H12A -0.0125 0.8029 -0.1518 0.0
C13 C13 -0.0765912 0.78363 -0.22962 0.0
H13A H13A -0.0793 0.8816 -0.2412 0.0
C14 C14 0.0735111 0.35043 -0.0572219 0.0
H14A H14A 0.0839 0.2552 -0.06 0.0
C15 C15 0.0312712 0.39463 -0.10802 0.0
H15A H15A 0.0139 0.33 -0.1442 0.0
C16 C16 0.014851 0.53663 -0.1046516 0.0
C17 C17 0.0418411 0.62603 -0.0489318 0.0
H17A H17A 0.0318 0.721 -0.044 0.0
C18 C18 0.0840411 0.57413 -0.0002918 0.0
H18A H18A 0.1019 0.6363 0.0367 0.0
_cell_length_a 27.1013
_cell_length_b 9.27321
_cell_length_c 16.979215
_cell_angle_alpha 90.0
_cell_angle_beta 99.1565
_cell_angle_gamma 90.0
_symmetry_space_group_name_H-M         'P 1'
_symmetry_Int_Tables_number            1
loop_
_symmetry_equiv_pos_as_xyz
   'x, y, z'
                         
loop_
_atom_site_label
_atom_site_type_symbol
_atom_site_fract_x 
_atom_site_fract_y
_atom_site_fract_z
_atom_site_charge
Zn1 Zn1 -0.1730961 0.797253 -0.34232817 0.0
Zn2 Zn2 -0.17236711 0.393693 -0.54948817 0.0
O1 O1 -0.232796 0.6575118 -0.306891 0.0
O2 O2 -0.177837 0.63352 -0.4249112 0.0
O3 O3 -0.207947 0.41482 -0.4583412 0.0
O4 O4 -0.302018 0.2836219 -0.4008412 0.0
O5 O5 -0.365228 0.41192 -0.4662013 0.0
O6 O6 -0.318207 0.43312 -0.2525511 0.0
O7 O7 -0.363679 0.62342 -0.2285813 0.0
O8 O8 -0.317437 0.9448119 -0.3742912 0.0
O9 O9 -0.240687 0.89402 -0.3987012 0.0
N1 N1 -0.112319 0.69582 -0.2653814 0.0
N2 N2 0.100198 0.43872 -0.0041314 0.0
C1 C1 -0.242039 0.53202 -0.3581014 0.0
H1A H1A -0.2375 0.4445 -0.3254 0.0
C2 C2 -0.296559 0.54213 -0.3984014 0.0
H2A H2A -0.2969 0.5992 -0.4471 0.0
C3 C3 -0.320829 0.63603 -0.3397414 0.0
H3A H3A -0.3495 0.6888 -0.3683 0.0
C4 C4 -0.277909 0.74012 -0.3102514 0.0
H4A H4A -0.281 0.7737 -0.2565 0.0
C5 C5 -0.206069 0.52913 -0.4182315 0.0
C6 C6 -0.323431 0.40183 -0.4230215 0.0
C7 C7 -0.335529 0.55643 -0.2676515 0.0
C8 C8 -0.277699 0.87113 -0.3661815 0.0
C9 C9 -0.1069511 0.55683 -0.2488818 0.0
H9A H9A -0.1314 0.4938 -0.2731 0.0
C10 C10 -0.0669112 0.50003 -0.1975419 0.0
H10A H10A -0.065 0.4012 -0.1882 0.0
C11 C11 -0.029581 0.59063 -0.1598317 0.0
C12 C12 -0.0357312 0.73673 -0.17642 0.0
H12A H12A -0.0125 0.8029 -0.1518 0.0
C13 C13 -0.0765912 0.78363 -0.22962 0.0
H13A H13A -0.0793 0.8816 -0.2412 0.0
C14 C14 0.0735111 0.35043 -0.0572219 0.0
H14A H14A 0.0839 0.2552 -0.06 0.0
C15 C15 0.0312712 0.39463 -0.10802 0.0
H15A H15A 0.0139 0.33 -0.1442 0.0
C16 C16 0.014851 0.53663 -0.1046516 0.0
C17 C17 0.0418411 0.62603 -0.0489318 0.0
H17A H17A 0.0318 0.721 -0.044 0.0
C18 C18 0.0840411 0.57413 -0.0002918 0.0
H18A H18A 0.1019 0.6363 0.0367 0.0
_cell_length_a 27.1013
_cell_length_b 9.27321
_cell_length_c 16.979215
_cell_angle_alpha 90.0
_cell_angle_beta 99.1565
_cell_angle_gamma 90.0
_symmetry_space_group_name_H-M         'P 1'
_symmetry_Int_Tables_number            1
loop_
_symmetry_equiv_pos_as_xyz
   'x, y, z'
                         
loop_
_atom_site_label
_atom_site_type_symbol
_atom_site_fract_x 
_atom_site_fract_y
_atom_site_fract_z
_atom_site_charge
Zn1 Zn1 -0.1730961 0.797253 -0.34232817 0.0
Zn2 Zn2 -0.17236711 0.393693 -0.54948817 0.0
O1 O1 -0.232796 0.6575118 -0.306891 0.0
O2 O2 -0.177837 0.63352 -0.4249112 0.0
O3 O3 -0.207947 0.41482 -0.4583412 0.0
O4 O4 -0.302018 0.2836219 -0.4008412 0.0
O5 O5 -0.365228 0.41192 -0.4662013 0.0
O6 O6 -0.318207 0.43312 -0.2525511 0.0
O7 O7 -0.363679 0.62342 -0.2285813 0.0
O8 O8 -0.317437 0.9448119 -0.3742912 0.0
O9 O9 -0.240687 0.89402 -0.3987012 0.0
N1 N1 -0.112319 0.69582 -0.2653814 0.0
N2 N2 0.100198 0.43872 -0.0041314 0.0
C1 C1 -0.242039 0.53202 -0.3581014 0.0
H1A H1A -0.2375 0.4445 -0.3254 0.0
C2 C2 -0.296559 0.54213 -0.3984014 0.0
H2A H2A -0.2969 0.5992 -0.4471 0.0
C3 C3 -0.320829 0.63603 -0.3397414 0.0
H3A H3A -0.3495 0.6888 -0.3683 0.0
C4 C4 -0.277909 0.74012 -0.3102514 0.0
H4A H4A -0.281 0.7737 -0.2565 0.0
C5 C5 -0.206069 0.52913 -0.4182315 0.0
C6 C6 -0.323431 0.40183 -0.4230215 0.0
C7 C7 -0.335529 0.55643 -0.2676515 0.0
C8 C8 -0.277699 0.87113 -0.3661815 0.0
C9 C9 -0.1069511 0.55683 -0.2488818 0.0
H9A H9A -0.1314 0.4938 -0.2731 0.0
C10 C10 -0.0669112 0.50003 -0.1975419 0.0
H10A H10A -0.065 0.4012 -0.1882 0.0
C11 C11 -0.029581 0.59063 -0.1598317 0.0
C12 C12 -0.0357312 0.73673 -0.17642 0.0
H12A H12A -0.0125 0.8029 -0.1518 0.0
C13 C13 -0.0765912 0.78363 -0.22962 0.0
H13A H13A -0.0793 0.8816 -0.2412 0.0
C14 C14 0.0735111 0.35043 -0.0572219 0.0
H14A H14A 0.0839 0.2552 -0.06 0.0
C15 C15 0.0312712 0.39463 -0.10802 0.0
H15A H15A 0.0139 0.33 -0.1442 0.0
C16 C16 0.014851 0.53663 -0.1046516 0.0
C17 C17 0.0418411 0.62603 -0.0489318 0.0
H17A H17A 0.0318 0.721 -0.044 0.0
C18 C18 0.0840411 0.57413 -0.0002918 0.0
H18A H18A 0.1019 0.6363 0.0367 0.0
_cell_length_a 27.1013
_cell_length_b 9.27321
_cell_length_c 16.979215
_cell_angle_alpha 90.0
_cell_angle_beta 99.1565
_cell_angle_gamma 90.0
_symmetry_space_group_name_H-M         'P 1'
_symmetry_Int_Tables_number            1
loop_
_symmetry_equiv_pos_as_xyz
   'x, y, z'
                         
loop_
_atom_site_label
_atom_site_type_symbol
_atom_site_fract_x 
_atom_site_fract_y
_atom_site_fract_z
_atom_site_charge
Zn1 Zn1 -0.1730961 0.797253 -0.34232817 0.0
Zn2 Zn2 -0.17236711 0.393693 -0.54948817 0.0
O1 O1 -0.232796 0.6575118 -0.306891 0.0
O2 O2 -0.177837 0.63352 -0.4249112 0.0
O3 O3 -0.207947 0.41482 -0.4583412 0.0
O4 O4 -0.302018 0.2836219 -0.4008412 0.0
O5 O5 -0.365228 0.41192 -0.4662013 0.0
O6 O6 -0.318207 0.43312 -0.2525511 0.0
O7 O7 -0.363679 0.62342 -0.2285813 0.0
O8 O8 -0.317437 0.9448119 -0.3742912 0.0
O9 O9 -0.240687 0.89402 -0.3987012 0.0
N1 N1 -0.112319 0.69582 -0.2653814 0.0
N2 N2 0.100198 0.43872 -0.0041314 0.0
C1 C1 -0.242039 0.53202 -0.3581014 0.0
H1A H1A -0.2375 0.4445 -0.3254 0.0
C2 C2 -0.296559 0.54213 -0.3984014 0.0
H2A H2A -0.2969 0.5992 -0.4471 0.0
C3 C3 -0.320829 0.63603 -0.3397414 0.0
H3A H3A -0.3495 0.6888 -0.3683 0.0
C4 C4 -0.277909 0.74012 -0.3102514 0.0
H4A H4A -0.281 0.7737 -0.2565 0.0
C5 C5 -0.206069 0.52913 -0.4182315 0.0
C6 C6 -0.323431 0.40183 -0.4230215 0.0
C7 C7 -0.335529 0.55643 -0.2676515 0.0
C8 C8 -0.277699 0.87113 -0.3661815 0.0
C9 C9 -0.1069511 0.55683 -0.2488818 0.0
H9A H9A -0.1314 0.4938 -0.2731 0.0
C10 C10 -0.0669112 0.50003 -0.1975419 0.0
H10A H10A -0.065 0.4012 -0.1882 0.0
C11 C11 -0.029581 0.59063 -0.1598317 0.0
C12 C12 -0.0357312 0.73673 -0.17642 0.0
H12A H12A -0.0125 0.8029 -0.1518 0.0
C13 C13 -0.0765912 0.78363 -0.22962 0.0
H13A H13A -0.0793 0.8816 -0.2412 0.0
C14 C14 0.0735111 0.35043 -0.0572219 0.0
H14A H14A 0.0839 0.2552 -0.06 0.0
C15 C15 0.0312712 0.39463 -0.10802 0.0
H15A H15A 0.0139 0.33 -0.1442 0.0
C16 C16 0.014851 0.53663 -0.1046516 0.0
C17 C17 0.0418411 0.62603 -0.0489318 0.0
H17A H17A 0.0318 0.721 -0.044 0.0
C18 C18 0.0840411 0.57413 -0.0002918 0.0
H18A H18A 0.1019 0.6363 0.0367 0.0
_cell_length_a 27.1013
_cell_length_b 9.27321
_cell_length_c 16.979215
_cell_angle_alpha 90.0
_cell_angle_beta 99.1565
_cell_angle_gamma 90.0
_symmetry_space_group_name_H-M         'P 1'
_symmetry_Int_Tables_number            1
loop_
_symmetry_equiv_pos_as_xyz
   'x, y, z'
                         
loop_
_atom_site_label
_atom_site_type_symbol
_atom_site_fract_x 
_atom_site_fract_y
_atom_site_fract_z
_atom_site_charge
Zn1 Zn1 -0.1730961 0.797253 -0.34232817 0.0
Zn2 Zn2 -0.17236711 0.393693 -0.54948817 0.0
O1 O1 -0.232796 0.6575118 -0.306891 0.0
O2 O2 -0.177837 0.63352 -0.4249112 0.0
O3 O3 -0.207947 0.41482 -0.4583412 0.0
O4 O4 -0.302018 0.2836219 -0.4008412 0.0
O5 O5 -0.365228 0.41192 -0.4662013 0.0
O6 O6 -0.318207 0.43312 -0.2525511 0.0
O7 O7 -0.363679 0.62342 -0.2285813 0.0
O8 O8 -0.317437 0.9448119 -0.3742912 0.0
O9 O9 -0.240687 0.89402 -0.3987012 0.0
N1 N1 -0.112319 0.69582 -0.2653814 0.0
N2 N2 0.100198 0.43872 -0.0041314 0.0
C1 C1 -0.242039 0.53202 -0.3581014 0.0
H1A H1A -0.2375 0.4445 -0.3254 0.0
C2 C2 -0.296559 0.54213 -0.3984014 0.0
H2A H2A -0.2969 0.5992 -0.4471 0.0
C3 C3 -0.320829 0.63603 -0.3397414 0.0
H3A H3A -0.3495 0.6888 -0.3683 0.0
C4 C4 -0.277909 0.74012 -0.3102514 0.0
H4A H4A -0.281 0.7737 -0.2565 0.0
C5 C5 -0.206069 0.52913 -0.4182315 0.0
C6 C6 -0.323431 0.40183 -0.4230215 0.0
C7 C7 -0.335529 0.55643 -0.2676515 0.0
C8 C8 -0.277699 0.87113 -0.3661815 0.0
C9 C9 -0.1069511 0.55683 -0.2488818 0.0
H9A H9A -0.1314 0.4938 -0.2731 0.0
C10 C10 -0.0669112 0.50003 -0.1975419 0.0
H10A H10A -0.065 0.4012 -0.1882 0.0
C11 C11 -0.029581 0.59063 -0.1598317 0.0
C12 C12 -0.0357312 0.73673 -0.17642 0.0
H12A H12A -0.0125 0.8029 -0.1518 0.0
C13 C13 -0.0765912 0.78363 -0.22962 0.0
H13A H13A -0.0793 0.8816 -0.2412 0.0
C14 C14 0.0735111 0.35043 -0.0572219 0.0
H14A H14A 0.0839 0.2552 -0.06 0.0
C15 C15 0.0312712 0.39463 -0.10802 0.0
H15A H15A 0.0139 0.33 -0.1442 0.0
C16 C16 0.014851 0.53663 -0.1046516 0.0
C17 C17 0.0418411 0.62603 -0.0489318 0.0
H17A H17A 0.0318 0.721 -0.044 0.0
C18 C18 0.0840411 0.57413 -0.0002918 0.0
H18A H18A 0.1019 0.6363 0.0367 0.0
_cell_length_a 27.1013
_cell_length_b 9.27321
_cell_length_c 16.979215
_cell_angle_alpha 90.0
_cell_angle_beta 99.1565
_cell_angle_gamma 90.0
_symmetry_space_group_name_H-M         'P 1'
_symmetry_Int_Tables_number            1
loop_
_symmetry_equiv_pos_as_xyz
   'x, y, z'
                         
loop_
_atom_site_label
_atom_site_type_symbol
_atom_site_fract_x 
_atom_site_fract_y
_atom_site_fract_z
_atom_site_charge
Zn1 Zn1 -0.1730961 0.797253 -0.34232817 0.0
Zn2 Zn2 -0.17236711 0.393693 -0.54948817 0.0
O1 O1 -0.232796 0.6575118 -0.306891 0.0
O2 O2 -0.177837 0.63352 -0.4249112 0.0
O3 O3 -0.207947 0.41482 -0.4583412 0.0
O4 O4 -0.302018 0.2836219 -0.4008412 0.0
O5 O5 -0.365228 0.41192 -0.4662013 0.0
O6 O6 -0.318207 0.43312 -0.2525511 0.0
O7 O7 -0.363679 0.62342 -0.2285813 0.0
O8 O8 -0.317437 0.9448119 -0.3742912 0.0
O9 O9 -0.240687 0.89402 -0.3987012 0.0
N1 N1 -0.112319 0.69582 -0.2653814 0.0
N2 N2 0.100198 0.43872 -0.0041314 0.0
C1 C1 -0.242039 0.53202 -0.3581014 0.0
H1A H1A -0.2375 0.4445 -0.3254 0.0
C2 C2 -0.296559 0.54213 -0.3984014 0.0
H2A H2A -0.2969 0.5992 -0.4471 0.0
C3 C3 -0.320829 0.63603 -0.3397414 0.0
H3A H3A -0.3495 0.6888 -0.3683 0.0
C4 C4 -0.277909 0.74012 -0.3102514 0.0
H4A H4A -0.281 0.7737 -0.2565 0.0
C5 C5 -0.206069 0.52913 -0.4182315 0.0
C6 C6 -0.323431 0.40183 -0.4230215 0.0
C7 C7 -0.335529 0.55643 -0.2676515 0.0
C8 C8 -0.277699 0.87113 -0.3661815 0.0
C9 C9 -0.1069511 0.55683 -0.2488818 0.0
H9A H9A -0.1314 0.4938 -0.2731 0.0
C10 C10 -0.0669112 0.50003 -0.1975419 0.0
H10A H10A -0.065 0.4012 -0.1882 0.0
C11 C11 -0.029581 0.59063 -0.1598317 0.0
C12 C12 -0.0357312 0.73673 -0.17642 0.0
H12A H12A -0.0125 0.8029 -0.1518 0.0
C13 C13 -0.0765912 0.78363 -0.22962 0.0
H13A H13A -0.0793 0.8816 -0.2412 0.0
C14 C14 0.0735111 0.35043 -0.0572219 0.0
H14A H14A 0.0839 0.2552 -0.06 0.0
C15 C15 0.0312712 0.39463 -0.10802 0.0
H15A H15A 0.0139 0.33 -0.1442 0.0
C16 C16 0.014851 0.53663 -0.1046516 0.0
C17 C17 0.0418411 0.62603 -0.0489318 0.0
H17A H17A 0.0318 0.721 -0.044 0.0
C18 C18 0.0840411 0.57413 -0.0002918 0.0
H18A H18A 0.1019 0.6363 0.0367 0.0
_cell_length_a 27.1013
_cell_length_b 9.27321
_cell_length_c 16.979215
_cell_angle_alpha 90.0
_cell_angle_beta 99.1565
_cell_angle_gamma 90.0
_symmetry_space_group_name_H-M         'P 1'
_symmetry_Int_Tables_number            1
loop_
_symmetry_equiv_pos_as_xyz
   'x, y, z'
                         
loop_
_atom_site_label
_atom_site_type_symbol
_atom_site_fract_x 
_atom_site_fract_y
_atom_site_fract_z
_atom_site_charge
Zn1 Zn1 -0.1730961 0.797253 -0.34232817 0.0
Zn2 Zn2 -0.17236711 0.393693 -0.54948817 0.0
O1 O1 -0.232796 0.6575118 -0.306891 0.0
O2 O2 -0.177837 0.63352 -0.4249112 0.0
O3 O3 -0.207947 0.41482 -0.4583412 0.0
O4 O4 -0.302018 0.2836219 -0.4008412 0.0
O5 O5 -0.365228 0.41192 -0.4662013 0.0
O6 O6 -0.318207 0.43312 -0.2525511 0.0
O7 O7 -0.363679 0.62342 -0.2285813 0.0
O8 O8 -0.317437 0.9448119 -0.3742912 0.0
O9 O9 -0.240687 0.89402 -0.3987012 0.0
N1 N1 -0.112319 0.69582 -0.2653814 0.0
N2 N2 0.100198 0.43872 -0.0041314 0.0
C1 C1 -0.242039 0.53202 -0.3581014 0.0
H1A H1A -0.2375 0.4445 -0.3254 0.0
C2 C2 -0.296559 0.54213 -0.3984014 0.0
H2A H2A -0.2969 0.5992 -0.4471 0.0
C3 C3 -0.320829 0.63603 -0.3397414 0.0
H3A H3A -0.3495 0.6888 -0.3683 0.0
C4 C4 -0.277909 0.74012 -0.3102514 0.0
H4A H4A -0.281 0.7737 -0.2565 0.0
C5 C5 -0.206069 0.52913 -0.4182315 0.0
C6 C6 -0.323431 0.40183 -0.4230215 0.0
C7 C7 -0.335529 0.55643 -0.2676515 0.0
C8 C8 -0.277699 0.87113 -0.3661815 0.0
C9 C9 -0.1069511 0.55683 -0.2488818 0.0
H9A H9A -0.1314 0.4938 -0.2731 0.0
C10 C10 -0.0669112 0.50003 -0.1975419 0.0
H10A H10A -0.065 0.4012 -0.1882 0.0
C11 C11 -0.029581 0.59063 -0.1598317 0.0
C12 C12 -0.0357312 0.73673 -0.17642 0.0
H12A H12A -0.0125 0.8029 -0.1518 0.0
C13 C13 -0.0765912 0.78363 -0.22962 0.0
H13A H13A -0.0793 0.8816 -0.2412 0.0
C14 C14 0.0735111 0.35043 -0.0572219 0.0
H14A H14A 0.0839 0.2552 -0.06 0.0
C15 C15 0.0312712 0.39463 -0.10802 0.0
H15A H15A 0.0139 0.33 -0.1442 0.0
C16 C16 0.014851 0.53663 -0.1046516 0.0
C17 C17 0.0418411 0.62603 -0.0489318 0.0
H17A H17A 0.0318 0.721 -0.044 0.0
C18 C18 0.0840411 0.57413 -0.0002918 0.0
H18A H18A 0.1019 0.6363 0.0367 0.0
