_cell_length_a 27.1013
_cell_length_b 9.27321
_cell_length_c 16.979215
_cell_angle_alpha 90.0
_cell_angle_beta 99.1565
_cell_angle_gamma 90.0
_symmetry_space_group_name_H-M         'P 1'
_symmetry_Int_Tables_number            1
loop_
_symmetry_equiv_pos_as_xyz
   'x, y, z'
                         
loop_
_atom_site_label
_atom_site_type_symbol
_atom_site_fract_x 
_atom_site_fract_y
_atom_site_fract_z
_atom_site_charge
Zn Zn -0.17264154764132864 0.8023342148025138 -0.35500449746966156 0.0
Zn Zn -0.16697391908297793 0.3845717573436356 -0.5459884975153421 0.0
O O -0.23912311436981357 0.6669624921087652 -0.30057489510794366 0.0
O O -0.17154069592876559 0.605137949924106 -0.4203534498802509 0.0
O O -0.21136388418930316 0.41114981784629695 -0.43936248750623536 0.0
O O -0.31000366229597554 0.3152049548744242 -0.4013212062840186 0.0
O O -0.36733127493717155 0.3953595496749852 -0.4650232760871761 0.0
O O -0.33114686670103277 0.429563016570422 -0.2640089458996003 0.0
O O -0.36595951779573715 0.6718534571822077 -0.228731236986074 0.0
O O -0.3206615507114777 0.9681093211870602 -0.37444300983851364 0.0
O O -0.24964449162400137 0.866927397519674 -0.40749128123843614 0.0
N N -0.11448361772522045 0.691037963732781 -0.2471763433048055 0.0
N N 0.09943646466825111 0.4111276524706278 -0.021472934894187272 0.0
C C -0.23998763302158513 0.5436096329104623 -0.3452239793064897 0.0
H H -0.23544863302158514 0.45608963291046234 -0.3125225793064897 0.0
C C -0.28956455167955036 0.5584604963966302 -0.4141030404289348 0.0
H H -0.28990555167955034 0.6155304963966303 -0.4628016404289348 0.0
C C -0.31671122281039454 0.6048256019192757 -0.3402593564128794 0.0
H H -0.34538222281039455 0.6575956019192757 -0.3688179564128794 0.0
C C -0.2699424914821354 0.7301422573880304 -0.3039166238825129 0.0
H H -0.2730334914821354 0.7637222573880306 -0.2501652238825129 0.0
C C -0.20076549136699737 0.513660678368818 -0.406241867034623 0.0
C C -0.3196186525136685 0.4031405590956835 -0.4236164137059508 0.0
C C -0.3338506515100956 0.5718292343654747 -0.25965816412383835 0.0
C C -0.2726544386861751 0.8821322422586356 -0.38276545998971434 0.0
C C -0.10486549689887618 0.5193434793109211 -0.22953699353252535 0.0
H H -0.12931439689887617 0.45631347931092114 -0.25375519353252535 0.0
C C -0.04727381689360696 0.5072075255532178 -0.2039017029660923 0.0
H H -0.04536261689360695 0.4083775255532177 -0.19455980296609235 0.0
C C -0.03024254334453065 0.596742547187258 -0.17443267981059146 0.0
C C -0.04502568360932017 0.7221254128161956 -0.14124093687908654 0.0
H H -0.021794483609320174 0.7882954128161955 -0.11662093687908653 0.0
C C -0.07473477030848735 0.7759474754073514 -0.21718893255384647 0.0
H H -0.07744357030848735 0.8739174754073515 -0.22876893255384645 0.0
C C 0.07926894216917167 0.35233420120493875 -0.03640461193066689 0.0
H H 0.08965784216917169 0.2571042012049387 -0.03918271193066688 0.0
C C 0.03816116781937141 0.4271838832815938 -0.10147752656331857 0.0
H H 0.020789967819371407 0.3625538832815939 -0.13765752656331856 0.0
C C 0.00475678639523056 0.5013452695616989 -0.11506915847583572 0.0
C C 0.05299133470124255 0.6023332614965463 -0.03535866989293141 0.0
H H 0.042950234701242554 0.6973032614965463 -0.03042686989293142 0.0
C C 0.09844897173628289 0.5749778776954341 -7.318163806802523e-05 0.0
H H 0.11630787173628292 0.637147877695434 0.03691861836193198 0.0
Zn Zn 0.16609307124535844 0.7943075619898037 0.844515852068017 0.0
Zn Zn 0.17468858037398666 0.3649238618753225 1.0607299127744114 0.0
O O 0.24775928783762388 0.6592800446127907 0.8134130574998978 0.0
O O 0.18359779463274858 0.612152618350416 0.9278263949174046 0.0
O O 0.2095854386638673 0.41891255140842315 0.9475641833221358 0.0
O O 0.3011815264996169 0.29156377126120536 0.9050457971007878 0.0
O O 0.3559205957912398 0.42282193402133494 0.964544546599556 0.0
O O 0.3144702234879509 0.4133275900225191 0.7333063751774831 0.0
O O 0.36381645204331936 0.6183638340475136 0.7224138179831244 0.0
O O 0.31245068268403764 0.9549003007693653 0.8711606650512105 0.0
O O 0.24757604897793933 0.873429934602603 0.9077588527805013 0.0
N N 0.11232450064071718 0.7073202446415816 0.755227176474964 0.0
N N -0.10038970828253833 0.466904591261174 0.49980282581859264 0.0
C C 0.23597669052666737 0.5109276631177339 0.8402344488770269 0.0
H H 0.23143769052666735 0.42340766311773387 0.8075330488770269 0.0
C C 0.28515499106347125 0.5585914380104251 0.8885889849216335 0.0
H H 0.28549599106347123 0.615661438010425 0.9372875849216334 0.0
C C 0.3259235041429 0.6258990814662435 0.835905172672387 0.0
H H 0.3545945041429 0.6786690814662435 0.8644637726723869 0.0
C C 0.28356042845478047 0.7479758599340532 0.7951860072052023 0.0
H H 0.2866514284547805 0.7815558599340534 0.741434607205202 0.0
C C 0.20651272467543877 0.526861260140809 0.9271254818237731 0.0
C C 0.3334360621678383 0.3714167223622529 0.9365809114971272 0.0
C C 0.3300031161524256 0.5661336292133333 0.7476194901197398 0.0
C C 0.2817354243288471 0.8300116586890707 0.8567345648131388 0.0
C C 0.1083715196155251 0.5589256284910799 0.7253087744909311 0.0
H H 0.1328204196155251 0.4958956284910798 0.7495269744909312 0.0
C C 0.06590862102765307 0.4927074868779566 0.6953816923157522 0.0
H H 0.06399742102765307 0.39387748687795665 0.6860397923157523 0.0
C C 0.02714520679586449 0.6018296354880159 0.6443335972756633 0.0
C C 0.035682479548775195 0.7304117165948388 0.6583587218272824 0.0
H H 0.0124512795487752 0.7965817165948388 0.6337387218272823 0.0
C C 0.08431531018074034 0.7764739348990647 0.7405713084838539 0.0
H H 0.08702411018074033 0.8744439348990648 0.7521513084838538 0.0
C C -0.0802684631655753 0.3483115658952856 0.5413301303167722 0.0
H H -0.09065736316557531 0.2530815658952855 0.5441082303167722 0.0
C C -0.03197332649706219 0.3489910407640256 0.5976737523549664 0.0
H H -0.014602126497062176 0.28436104076402563 0.6338537523549665 0.0
C C -0.019633556616354235 0.5063923765437425 0.6088828494750326 0.0
C C -0.041113772591969404 0.6517806658274055 0.537188486834863 0.0
H H -0.031072672591969407 0.7467506658274055 0.5322566868348632 0.0
C C -0.07890516597997001 0.5853071485235046 0.5041480668441326 0.0
H H -0.09676406597997 0.6474771485235046 0.4671562668441327 0.0
Zn Zn 0.3325598652375407 1.3088800798549123 -0.3393367985816886 0.0
Zn Zn 0.3292027726229097 0.9028079515228108 -0.5442072486966166 0.0
O O 0.2633001683805726 1.1551442115143449 -0.30506125091297 0.0
O O 0.3266634381162355 1.1040189743194626 -0.41821247601760164 0.0
O O 0.2847580064074986 0.913134009206793 -0.4596019309671371 0.0
O O 0.20089948206323832 0.7763343490209895 -0.39731082378398924 0.0
O O 0.1419273293427822 0.9131531554225841 -0.46131416235014094 0.0
O O 0.18530782189632058 0.9333456028476922 -0.23932888290684357 0.0
O O 0.1281423482332674 1.1053024594997454 -0.22457965376868877 0.0
O O 0.18606761698101976 1.4583592009471766 -0.3827495333800805 0.0
O O 0.26825967024372993 1.3904555288406086 -0.40478440667621896 0.0
N N 0.39427320684503225 1.2121430943346834 -0.28301852942975875 0.0
N N 0.6016040420680459 0.9377954347742911 -0.013235106238829179 0.0
C C 0.2576789111936143 1.021827653394417 -0.3480610128948868 0.0
H H 0.2622179111936143 0.9343076533944168 -0.3153596128948868 0.0
C C 0.2053182551115763 1.0417371803091402 -0.4061274663790662 0.0
H H 0.20497725511157636 1.0988071803091402 -0.45482606637906625 0.0
C C 0.17514495065620578 1.1367270281290953 -0.3402658483471407 0.0
H H 0.1464739506562058 1.1894970281290957 -0.3688244483471406 0.0
C C 0.22915154966409165 1.227713496582638 -0.2967418448666826 0.0
H H 0.22606054966409164 1.261293496582638 -0.24299044486668261 0.0
C C 0.2928437130626148 1.0172854825338045 -0.417794085145467 0.0
C C 0.164085905467258 0.9396524023142754 -0.44276789663345406 0.0
C C 0.16361374815101326 1.082704626401528 -0.2735361113534744 0.0
C C 0.2140994242745859 1.3445588922309275 -0.35619799697072985 0.0
C C 0.39240393171311944 1.0639506336514375 -0.24055238229667544 0.0
H H 0.3679550317131195 1.0009206336514376 -0.26477058229667544 0.0
C C 0.43634589003200436 0.9801708322871785 -0.20458670248172559 0.0
H H 0.43825709003200436 0.8813408322871785 -0.1952448024817256 0.0
C C 0.4752647456435879 1.0657796237026402 -0.1574064358645892 0.0
C C 0.46496659240439203 1.2240690539304457 -0.16955401998261135 0.0
H H 0.488197792404392 1.2902390539304458 -0.14493401998261132 0.0
C C 0.42169510994232107 1.2942547922335332 -0.23087909730631723 0.0
H H 0.41898630994232106 1.3922247922335333 -0.2424590973063172 0.0
C C 0.5915419231311794 0.8657328051360191 -0.0582671520249057 0.0
H H 0.6019308231311795 0.7705028051360191 -0.06104525202490569 0.0
C C 0.5310855743955162 0.8916913866166325 -0.10523364330086327 0.0
H H 0.5137143743955163 0.8270613866166326 -0.14141364330086328 0.0
C C 0.5058255610181536 1.001596003691904 -0.11705183247461026 0.0
C C 0.5482152106170984 1.1246819161668695 -0.03432670046874337 0.0
H H 0.5381741106170985 1.2196519161668695 -0.029394900468743376 0.0
C C 0.5903939852482408 1.0965406413011183 -0.0028945900958208368 0.0
H H 0.6082528852482407 1.1587106413011181 0.034097209904179165 0.0
Zn Zn 0.6741195010219418 1.2952609542433275 0.8595987520736608 0.0
Zn Zn 0.6705815230899713 0.9202378924872526 1.0626901564971463 0.0
O O 0.7411539166212728 1.1635321313599338 0.8154674640195194 0.0
O O 0.6631487690609644 1.1396044570407702 0.923544164575375 0.0
O O 0.7061010284554712 0.9249437764771862 0.966629406687533 0.0
O O 0.7935087275335415 0.7977743609096075 0.8890453897666162 0.0
O O 0.8564122787347823 0.9494318014778496 0.961833123151443 0.0
O O 0.8168423242330152 0.9216904267549166 0.749115694974419 0.0
O O 0.8668499391809974 1.1077428195833692 0.725362668444627 0.0
O O 0.8208182550859378 1.4348295830594697 0.8630287998585595 0.0
O O 0.7285213666744224 1.38739128959727 0.8943589094280644 0.0
N N 0.6231699138557277 1.2234197709140429 0.7708889399337199 0.0
N N 0.3981614376557936 0.9558676652352937 0.49691157563071214 0.0
C C 0.7452711238681509 1.0464714070215069 0.868318422751124 0.0
H H 0.740732123868151 0.9589514070215067 0.835617022751124 0.0
C C 0.799703960453308 1.036304289001017 0.8923449630163822 0.0
H H 0.800044960453308 1.093374289001017 0.9410435630163823 0.0
C C 0.8158661154490696 1.1496551475548236 0.8419403445751106 0.0
H H 0.8445371154490696 1.2024251475548238 0.8704989445751106 0.0
C C 0.7817153374689145 1.2617168715863933 0.814871018365537 0.0
H H 0.7848063374689144 1.2952968715863935 0.7611196183655369 0.0
C C 0.7045072045807818 1.0480023423937177 0.9042061641189323 0.0
C C 0.821380793689006 0.9201208034898228 0.9205202148266157 0.0
C C 0.8338545595385982 1.0404745903546024 0.7592340224641334 0.0
C C 0.7806391857120324 1.371291703879288 0.8668114764539865 0.0
C C 0.6092107800110813 1.040301769212998 0.7447068994719984 0.0
H H 0.6336596800110814 0.9772717692129981 0.7689250994719984 0.0
C C 0.5647381331240283 1.010225131384617 0.6776121349451715 0.0
H H 0.5628269331240282 0.9113951313846168 0.6682702349451716 0.0
C C 0.519097149892397 1.0750557904183808 0.6578926412372476 0.0
C C 0.5353249004161484 1.2691352790723043 0.6665699939799077 0.0
H H 0.5120937004161484 1.3353052790723041 0.6419499939799077 0.0
C C 0.5856089324982011 1.2696732450000274 0.7448586386666637 0.0
H H 0.5883177324982011 1.3676432450000278 0.7564386386666636 0.0
C C 0.42569481054648584 0.8530881977439317 0.5685818883830335 0.0
H H 0.41530591054648586 0.7578581977439317 0.5713599883830335 0.0
C C 0.4644169459966602 0.8914328895226934 0.6012768569803375 0.0
H H 0.4817881459966601 0.8268028895226937 0.6374568569803375 0.0
C C 0.48805313713351567 1.0137720890642372 0.615282981237505 0.0
C C 0.4551771238744945 1.1305663077703672 0.5628055494596496 0.0
H H 0.46521822387449446 1.225536307770367 0.5578737494596496 0.0
C C 0.4225249256866631 1.0614894725104704 0.522748119164412 0.0
H H 0.4046660256866631 1.1236594725104703 0.4857563191644121 0.0
Zn Zn 0.1728139727360718 -0.7597770814349133 0.3385651905639185 0.0
Zn Zn 0.17160900267421245 -0.3856929986397132 0.5441855612459785 0.0
O O 0.23814425313131654 -0.670604046933435 0.3190192251913495 0.0
O O 0.17125645751966082 -0.6334197464838787 0.39454454978410375 0.0
O O 0.21849761173972107 -0.40139536938100173 0.4669374827216761 0.0
O O 0.3052947418281907 -0.275268112872682 0.4084382362805843 0.0
O O 0.36320912182354553 -0.4189375907766088 0.4630593607344174 0.0
O O 0.32404892571836985 -0.4444921430317335 0.2615628887373598 0.0
O O 0.3676368936129608 -0.5997314584375772 0.23457193349076172 0.0
O O 0.3037440445724029 -0.9311499566297674 0.36655460200534373 0.0
O O 0.2386375891532168 -0.9006079538800799 0.40212767944272687 0.0
N N 0.0986924999376051 -0.6911454060789756 0.2567335636522238 0.0
N N -0.10000485843389964 -0.44901075779372596 0.00048663525310709503 0.0
C C 0.24432922452765007 -0.5332646714475535 0.3635807979417963 0.0
H H 0.23979022452765011 -0.4457446714475535 0.3308793979417963 0.0
C C 0.3044433146567516 -0.5381517368024994 0.4055562497864261 0.0
H H 0.30478431465675165 -0.5952217368024995 0.4542548497864261 0.0
C C 0.32527428562383265 -0.6424270977681151 0.3485301830578109 0.0
H H 0.35394528562383265 -0.6951970977681151 0.3770887830578109 0.0
C C 0.2757845979644255 -0.7364936940343334 0.31707011100208365 0.0
H H 0.2788755979644255 -0.7700736940343336 0.26331871100208365 0.0
C C 0.21607559754109226 -0.5227178055732 0.4128361918525391 0.0
C C 0.3110459648547694 -0.4176922526436725 0.4231696415556797 0.0
C C 0.334222974334883 -0.5695287069721455 0.2594240197107783 0.0
C C 0.2807570966522857 -0.8718653488635155 0.3659523507321962 0.0
C C 0.10549340755439897 -0.5400422196648933 0.2666837284792141 0.0
H H 0.12994230755439898 -0.4770122196648933 0.2909019284792141 0.0
C C 0.060647312293675114 -0.5012213301926022 0.1855179331953578 0.0
H H 0.0587361122936751 -0.40239133019260215 0.17617603319535782 0.0
C C 0.03027355578451729 -0.6026139751819869 0.1708491759597274 0.0
C C 0.047332781439816736 -0.768509151829401 0.18429950062920564 0.0
H H 0.02410158143981674 -0.834679151829401 0.15967950062920563 0.0
C C 0.08090852832489384 -0.781093400172168 0.24322929501259766 0.0
H H 0.08361732832489385 -0.8790634001721681 0.2548092950125977 0.0
C C -0.07439336617363547 -0.3438736802839588 0.047945921289865155 0.0
H H -0.08478226617363549 -0.24864368028395875 0.05072402128986514 0.0
C C -0.04008391611038052 -0.40409755238982237 0.08896813110928407 0.0
H H -0.022712716110380525 -0.3394675523898224 0.12514813110928408 0.0
C C -0.0176239087287675 -0.5576940014341887 0.11554070039151967 0.0
C C -0.037381664475667105 -0.6165286961660348 0.0713415311731521 0.0
H H -0.027340564475667104 -0.7114986961660348 0.0664097311731521 0.0
C C -0.09109445657911075 -0.5386910479679643 -0.01806781586650435 0.0
H H -0.10895335657911076 -0.6008610479679644 -0.055059615866504354 0.0
Zn Zn -0.18595585372162998 -0.7887954644997783 -0.8623021127392002 0.0
Zn Zn -0.17277360650635903 -0.3919820122197151 -1.0539612269201235 0.0
O O -0.22250707320713634 -0.6691031205105039 -0.7988304979915969 0.0
O O -0.1772599934047062 -0.6209769160228799 -0.9324473691645108 0.0
O O -0.225391118151328 -0.396035620381285 -0.9927620845646361 0.0
O O -0.30249154227830555 -0.2911421674936952 -0.9062195496731248 0.0
O O -0.3711309363099013 -0.3929512593299705 -0.9719227099199641 0.0
O O -0.312387902814622 -0.4302229211237543 -0.7435635227941234 0.0
O O -0.34795504660265153 -0.5708442534434904 -0.7085083644011336 0.0
O O -0.3181568482212577 -0.9316745369333489 -0.8832441027418576 0.0
O O -0.23402941063231844 -0.8990069261280168 -0.8913745261286966 0.0
N N -0.10862688447476601 -0.684843316826871 -0.762051253999698 0.0
N N 0.09846046734796796 -0.4164905489041759 -0.5090490046801979 0.0
C C -0.23811158165000235 -0.5398918541825832 -0.837552530745647 0.0
H H -0.23357258165000236 -0.45237185418258313 -0.804851130745647 0.0
C C -0.2962679804625012 -0.5369130433538271 -0.8900428922396091 0.0
H H -0.2966089804625012 -0.5939830433538271 -0.938741492239609 0.0
C C -0.31448839324637784 -0.6287495444558325 -0.8402348999171854 0.0
H H -0.34315939324637784 -0.6815195444558325 -0.8687934999171852 0.0
C C -0.27154325496787685 -0.7411650007694471 -0.8087448040348089 0.0
H H -0.2746342549678768 -0.7747450007694472 -0.7549934040348086 0.0
C C -0.20983843690441026 -0.5226760252260994 -0.9252612394163326 0.0
C C -0.32876512322337403 -0.39287306467837324 -0.9356759871263732 0.0
C C -0.3309177212046737 -0.5520976973889699 -0.7583647011991511 0.0
C C -0.2695848071193886 -0.8607958457584247 -0.8841104116554352 0.0
C C -0.11330263604124075 -0.5767918520080815 -0.7526306061391175 0.0
H H -0.13775153604124074 -0.5137618520080814 -0.7768488061391174 0.0
C C -0.08117121025527463 -0.552423357014413 -0.6899106437434027 0.0
H H -0.07926001025527463 -0.45359335701441295 -0.6805687437434028 0.0
C C -0.03458175196366803 -0.5974390379767865 -0.6492802145137153 0.0
C C -0.030529581252192607 -0.7183361938579141 -0.6725829836051315 0.0
H H -0.007298381252192616 -0.7845061938579141 -0.6479629836051314 0.0
C C -0.0704499159766402 -0.8161917180779525 -0.7198994018596139 0.0
H H -0.07315871597664018 -0.9141617180779528 -0.7314794018596139 0.0
C C 0.07396582775121727 -0.33909600152587166 -0.5504961771908636 0.0
H H 0.08435472775121727 -0.2438660015258716 -0.5532742771908636 0.0
C C 0.022162067882620692 -0.395159258865427 -0.605973208107452 0.0
H H 0.004790867882620678 -0.330529258865427 -0.642153208107452 0.0
C C 0.0212501905178307 -0.5292416394020629 -0.5910230212932504 0.0
C C 0.04416392794703283 -0.6235438248083793 -0.5500555420569609 0.0
H H 0.03412282794703282 -0.7185138248083793 -0.545123742056961 0.0
C C 0.08322222038440026 -0.5784636235220948 -0.5128667741200224 0.0
H H 0.10108112038440024 -0.6406336235220947 -0.47587497412002244 0.0
Zn Zn 0.6810693715238333 -0.2999807330028602 0.3506442218759049 0.0
Zn Zn 0.6651770619008787 0.09582726725549315 0.5401381597070769 0.0
O O 0.7318199177536041 -0.15151396368422995 0.3085445268921887 0.0
O O 0.6724748244837601 -0.12595071673815839 0.4362511081036803 0.0
O O 0.71314925116697 0.06793359432060342 0.45950435617187557 0.0
O O 0.8022376943021947 0.2074425239013721 0.4062266570474438 0.0
O O 0.8662802094118335 0.09962844995832211 0.46968647390526636 0.0
O O 0.8368306962891859 0.06791636001771498 0.2704036553870322 0.0
O O 0.8681556237447338 -0.12288244128138168 0.23283644377610155 0.0
O O 0.8195889355163207 -0.43364999377381286 0.377643104666889 0.0
O O 0.7340764582787616 -0.3984678590024635 0.4006442840751915 0.0
N N 0.6228236195087081 -0.17381126021250123 0.26266461998116214 0.0
N N 0.4063563696553544 0.0778554569651378 0.0007525175628418972 0.0
C C 0.7522710789516666 -0.03765092791606602 0.36440485817831975 0.0
H H 0.7477320789516666 0.04986907208393402 0.33170345817831975 0.0
C C 0.7990018608372033 -0.045138000238191346 0.3775728722334042 0.0
H H 0.7993428608372032 -0.10220800023819131 0.42627147223340417 0.0
C C 0.8256878267180234 -0.12817774127610734 0.33827992354273034 0.0
H H 0.8543588267180234 -0.18094774127610733 0.36683852354273033 0.0
C C 0.777225232059033 -0.24959976117751043 0.3154191044583198 0.0
H H 0.780316232059033 -0.2831797611775105 0.26166770445831977 0.0
C C 0.7064821767975781 -0.03736409270080219 0.42074333805986974 0.0
C C 0.8152541001264416 0.11699528992045997 0.4210650443358298 0.0
C C 0.8387140567971673 -0.01919031444213619 0.2732899898107562 0.0
C C 0.7730571322473981 -0.3624459111286416 0.37128434249994835 0.0
C C 0.6133333823282419 -0.028455451399347617 0.23504509387296524 0.0
H H 0.6377822823282417 0.0345745486006524 0.25926329387296526 0.0
C C 0.5682255259430359 0.049937929463268756 0.2062063014911975 0.0
H H 0.5663143259430359 0.14876792946326872 0.19686440149119755 0.0
C C 0.5374627638599009 -0.06173101735565814 0.15017845466048957 0.0
C C 0.54789626215791 -0.237713052260378 0.16434628229949438 0.0
H H 0.52466506215791 -0.30388305226037793 0.13972628229949438 0.0
C C 0.5780452732665988 -0.2690788650514633 0.2061714604929679 0.0
H H 0.5807540732665988 -0.36704886505146334 0.21775146049296787 0.0
C C 0.4263643627684939 0.13569609946435413 0.06287047026360472 0.0
H H 0.41597546276849384 0.2309260994643542 0.06564857026360471 0.0
C C 0.4644901235929617 0.12118483950713053 0.11089501225535225 0.0
H H 0.48186132359296174 0.1858148395071305 0.14707501225535227 0.0
C C 0.48115497060690304 -0.04776193937794186 0.09350901825939656 0.0
C C 0.4465906533946402 -0.170323806193152 0.051049384998812626 0.0
H H 0.45663175339464024 -0.26529380619315196 0.04611758499881263 0.0
C C 0.4068676057859941 -0.07908076423575384 0.01040725404659124 0.0
H H 0.3890087057859941 -0.14125076423575375 -0.026584545953408763 0.0
Zn Zn 0.32824462656020353 -0.3069307403929851 -0.8517265198927423 0.0
Zn Zn 0.32499161100025376 0.110701182631706 -1.0708231409464593 0.0
O O 0.25969653974597356 -0.17000342500304122 -0.8160996010255457 0.0
O O 0.3188721973236764 -0.11426837263067255 -0.9275487387848774 0.0
O O 0.2922084164511274 0.09187554662606832 -0.9617981212834641 0.0
O O 0.19988314037207122 0.20553298659439145 -0.8963142309499534 0.0
O O 0.14731977654884368 0.05827255719091024 -0.9612883963815873 0.0
O O 0.18225235324487998 0.05795818042166529 -0.7527728722416005 0.0
O O 0.12818597778106963 -0.14626681205327202 -0.725573019468616 0.0
O O 0.17886291020073886 -0.4435860930104662 -0.8764758312545561 0.0
O O 0.25820716906783703 -0.4145808553382744 -0.8933644140729883 0.0
N N 0.3878417231792006 -0.16993165029670096 -0.7719053130656424 0.0
N N 0.6072140658802768 0.030065599081126486 -0.4932626177615972 0.0
C C 0.2550603943056989 -0.0453495541643227 -0.8559469579503596 0.0
H H 0.25959939430569884 0.04217044583567733 -0.8232455579503596 0.0
C C 0.20137534543662997 -0.07069627927894999 -0.8960871728476878 0.0
H H 0.20103434543663 -0.12776627927894993 -0.9447857728476877 0.0
C C 0.1897699964461374 -0.1359939120379169 -0.8551263305283902 0.0
H H 0.16109899644613743 -0.18876391203791687 -0.88368493052839 0.0
C C 0.22280689533622122 -0.26776469158130317 -0.8015474806445263 0.0
H H 0.21971589533622118 -0.3013446915813032 -0.7477960806445261 0.0
C C 0.2935233917044267 -0.05573819182398176 -0.9293535927819907 0.0
C C 0.18459077923565748 0.10660909187022807 -0.9328867756328986 0.0
C C 0.16766927188192432 -0.0638205625059389 -0.7650103168671848 0.0
C C 0.21350830532599624 -0.38535104782962365 -0.879192767404691 0.0
C C 0.40272785309322634 -0.05656378837017995 -0.7495851926547815 0.0
H H 0.37827895309322634 0.006466211629820072 -0.7738033926547816 0.0
C C 0.4314901862780552 0.01165214986150339 -0.7117307585571966 0.0
H H 0.4334013862780551 0.11048214986150337 -0.7023888585571967 0.0
C C 0.4685812874378013 -0.08431533522475476 -0.6754197309715777 0.0
C C 0.44733155127768504 -0.21871042632017101 -0.7037236266538318 0.0
H H 0.470562751277685 -0.2848804263201709 -0.6791036266538317 0.0
C C 0.428203593517571 -0.30549923811165297 -0.6893599602739772 0.0
H H 0.425494793517571 -0.403469238111653 -0.7009399602739771 0.0
C C 0.5855952735116797 0.14537799597694362 -0.5580451750282882 0.0
H H 0.5959841735116798 0.24060799597694366 -0.5608232750282882 0.0
C C 0.5271116144442015 0.08900177246898328 -0.612415714129386 0.0
H H 0.5097404144442016 0.15363177246898327 -0.648595714129386 0.0
C C 0.5149705389002779 -0.037404041586722434 -0.6055230755546714 0.0
C C 0.5402572574367048 -0.12706732948772725 -0.5542715644701962 0.0
H H 0.5302161574367048 -0.22203732948772723 -0.5493397644701963 0.0
C C 0.5841644274773596 -0.09223470544558976 -0.4955566158445674 0.0
H H 0.6020233274773596 -0.15440470544558973 -0.45856481584456743 0.0
