_cell_length_a 27.1013
_cell_length_b 9.27321
_cell_length_c 16.979215
_cell_angle_alpha 90.0
_cell_angle_beta 99.1565
_cell_angle_gamma 90.0
_symmetry_space_group_name_H-M         'P 1'
_symmetry_Int_Tables_number            1
loop_
_symmetry_equiv_pos_as_xyz
   'x, y, z'
                         
loop_
_atom_site_label
_atom_site_type_symbol
_atom_site_fract_x 
_atom_site_fract_y
_atom_site_fract_z
_atom_site_charge
Zn Zn -0.16901309592444325 0.80452535727451 -0.33930307055799125 0.0
Zn Zn -0.17059266991871713 0.40655545120549713 -0.5633970956545452 0.0
O O -0.2398074989179201 0.6706490251381193 -0.3083182122754221 0.0
O O -0.1819263601400736 0.6650574161058169 -0.4331161354084964 0.0
O O -0.22833194071775015 0.43502813363194814 -0.4883370345288388 0.0
O O -0.3075881453533409 0.29443510622578545 -0.403586490750052 0.0
O O -0.35905716576387164 0.37425070337935856 -0.47007336803463506 0.0
O O -0.3080998374386154 0.4260090289863969 -0.2232375761103548 0.0
O O -0.36329741960906675 0.6095319642435539 -0.22711559306949572 0.0
O O -0.3135044452904595 0.9539029552251383 -0.3709206406190291 0.0
O O -0.24602737761958904 0.8882716912499113 -0.40930542672608455 0.0
N N -0.1030667501575227 0.6960596525502816 -0.24880765563454163 0.0
N N 0.10171394611288322 0.44083251858928685 -0.006180472868373295 0.0
C C -0.2315405601629952 0.5236525810820494 -0.361231292410623 0.0
H H -0.22700156016299522 0.43613258108204944 -0.328529892410623 0.0
C C -0.3009663054669394 0.5495125152911814 -0.39696800308577973 0.0
H H -0.30130730546693946 0.6065825152911815 -0.44566660308577977 0.0
C C -0.3274330985436095 0.6246962700517145 -0.3360984383787037 0.0
H H -0.35610409854360947 0.6774662700517144 -0.36465703837870367 0.0
C C -0.2781752926713638 0.7412355348114238 -0.3092836386591109 0.0
H H -0.2812662926713638 0.7748155348114238 -0.2555322386591109 0.0
C C -0.20083758679097 0.5581429598108805 -0.4111463998754947 0.0
C C -0.3240913294885663 0.403327286819185 -0.4193418926677974 0.0
C C -0.33314159784180153 0.573318172670687 -0.27514728122108423 0.0
C C -0.28033766628917933 0.8597021065013594 -0.37552091239783414 0.0
C C -0.11487441821598272 0.5513384095431754 -0.24820006124075436 0.0
H H -0.13932331821598273 0.48830840954317534 -0.27241826124075436 0.0
C C -0.06423294507154446 0.4842379709838603 -0.18884730972970384 0.0
H H -0.06232174507154446 0.38540797098386026 -0.17950540972970389 0.0
C C -0.02262912657783149 0.5913436564254895 -0.14210432911450677 0.0
C C -0.0332745439771447 0.7439718886870245 -0.16321211340306616 0.0
H H -0.010043343977144712 0.8101418886870244 -0.13859211340306615 0.0
C C -0.07889402575187596 0.7812873099273362 -0.24176589455089836 0.0
H H -0.08160282575187597 0.8792573099273362 -0.25334589455089834 0.0
C C 0.07822120034840296 0.33612660921389187 -0.05445383497395553 0.0
H H 0.08861010034840297 0.24089660921389183 -0.05723193497395552 0.0
C C 0.0461472671413624 0.4133836011715564 -0.11542220906158829 0.0
H H 0.028776067141362393 0.34875360117155646 -0.15160220906158828 0.0
C C 0.019414160233563633 0.5363569760344518 -0.11421112725580974 0.0
C C 0.03991716256108327 0.6340922830926011 -0.05544717797512414 0.0
H H 0.02987606256108326 0.7290622830926011 -0.05051537797512414 0.0
C C 0.09205025472164814 0.6100686977039167 -0.006636276347722968 0.0
H H 0.10990915472164814 0.6722386977039166 0.030355523652277037 0.0
Zn Zn 0.17412503968936682 0.797645365790726 0.8367936189114981 0.0
Zn Zn 0.17226757735892712 0.4089172690755529 1.0410643442625673 0.0
O O 0.23302773443125585 0.6364070547354598 0.8150012157816608 0.0
O O 0.1922807827703039 0.6313451135180921 0.9386364653920435 0.0
O O 0.21089116087062765 0.4121547999442235 0.9639829613060278 0.0
O O 0.2995712240492693 0.28005412582010225 0.9161341562770147 0.0
O O 0.3765122129819264 0.44266244562355245 0.9680860070355348 0.0
O O 0.3234177171950327 0.43932096528843667 0.7675690153028645 0.0
O O 0.35360675119400115 0.632947018703236 0.7228807414017867 0.0
O O 0.3235491840185503 0.9551788000219638 0.8635872262448767 0.0
O O 0.23483649604004508 0.8677905614856637 0.8927608110889295 0.0
N N 0.12256273344662315 0.7129883507996903 0.7572885707069086 0.0
N N -0.10297482402129976 0.40903415594226744 0.4942192354725934 0.0
C C 0.23330945037865308 0.5357589021162966 0.8545366862540119 0.0
H H 0.2287704503786531 0.44823890211629663 0.8218352862540119 0.0
C C 0.29441171543935174 0.5341240092304816 0.8963444096804694 0.0
H H 0.2947527154393517 0.5911940092304817 0.9450430096804693 0.0
C C 0.3281584721682696 0.6518816257875071 0.8516737352563012 0.0
H H 0.3568294721682696 0.704651625787507 0.8802323352563012 0.0
C C 0.28464422274666107 0.7398216062256089 0.8242155938230286 0.0
H H 0.2877352227466611 0.7734016062256089 0.7704641938230283 0.0
C C 0.21257384128192994 0.5165683446819407 0.9365247068978237 0.0
C C 0.32479264233881516 0.4202158127165473 0.9216194946223748 0.0
C C 0.34208804424368455 0.5624774630927233 0.7794094817552587 0.0
C C 0.28434416774393073 0.8816298958510885 0.8639102298831288 0.0
C C 0.10527209808969147 0.5726542648728069 0.7327296256876628 0.0
H H 0.12972099808969145 0.5096242648728069 0.7569478256876628 0.0
C C 0.07162541158692098 0.4933468579943308 0.6917169096210287 0.0
H H 0.069714211586921 0.3945168579943307 0.6823750096210288 0.0
C C 0.02383193875229937 0.5852641816042635 0.655638470002572 0.0
C C 0.03141878686511175 0.7414973214983976 0.6780018260884678 0.0
H H 0.008187586865111755 0.8076673214983976 0.6533818260884677 0.0
C C 0.08282933494895238 0.7985446188109069 0.7362780772013375 0.0
H H 0.08553813494895236 0.896514618810907 0.7478580772013376 0.0
C C -0.06253939700642853 0.3473845717270311 0.5834261693658729 0.0
H H -0.07292829700642854 0.25215457172703104 0.5862042693658729 0.0
C C -0.028434135923816446 0.40149313802581116 0.6064355010463977 0.0
H H -0.011062935923816448 0.33686313802581114 0.6426155010463976 0.0
C C -0.018496650194833333 0.5216590367743182 0.610614151407081 0.0
C C -0.04056360919858658 0.6214381110166144 0.5368772761406441 0.0
H H -0.030522509198586584 0.7164081110166145 0.5319454761406442 0.0
C C -0.08117530629437901 0.5884131004892322 0.4868164649512792 0.0
H H -0.09903420629437902 0.6505831004892323 0.4498246649512794 0.0
Zn Zn 0.31627164574612093 1.2672506195752327 -0.34838663598699937 0.0
Zn Zn 0.32827417878617315 0.8736468452060397 -0.5471076950125373 0.0
O O 0.2626297156489038 1.1623862280450106 -0.28648372903289254 0.0
O O 0.34153991449145826 1.104962851133044 -0.426751703679425 0.0
O O 0.2943376561320161 0.9308960309944747 -0.4696919319727688 0.0
O O 0.19427559211352638 0.7790265487137895 -0.3838187945681684 0.0
O O 0.13656484121493437 0.9126436867212537 -0.4624546397440283 0.0
O O 0.18273884461062626 0.921283047149341 -0.2550295447894767 0.0
O O 0.14587055474326374 1.1411621377398262 -0.2129819689047864 0.0
O O 0.18486483784164617 1.4290672544935858 -0.3744392484413773 0.0
O O 0.259905114628299 1.3833220574743865 -0.4056544310638794 0.0
N N 0.39360219037951305 1.2081383397904877 -0.2486375445579649 0.0
N N 0.5999897093456806 0.9514479427686687 -0.015960495376152087 0.0
C C 0.2543904533128355 1.040401763656037 -0.3555987467294473 0.0
H H 0.2589294533128355 0.9528817636560369 -0.3228973467294473 0.0
C C 0.20871829653903723 1.0515045059311021 -0.4074827000475627 0.0
H H 0.20837729653903722 1.108574505931102 -0.45618130004756274 0.0
C C 0.1806816363642195 1.1497051417745168 -0.35830428808233183 0.0
H H 0.1520106363642195 1.202475141774517 -0.3868628880823318 0.0
C C 0.21626387877311365 1.2317819694329928 -0.31229464179079824 0.0
H H 0.21317287877311364 1.2653619694329927 -0.25854324179079824 0.0
C C 0.2883582212802496 1.0222249765502749 -0.4243274900031408 0.0
C C 0.1871130877569143 0.9037812716182237 -0.42998821519376657 0.0
C C 0.16296807113355086 1.0668963977292412 -0.2473453049020494 0.0
C C 0.22864234478553055 1.3712711459705937 -0.36310475697426603 0.0
C C 0.39746965095843223 1.0617764544342359 -0.26559061974375425 0.0
H H 0.3730207509584323 0.9987464544342358 -0.2898088197437542 0.0
C C 0.43121730554707155 1.0061487832099445 -0.21521863135937536 0.0
H H 0.4331285055470716 0.9073187832099444 -0.20587673135937537 0.0
C C 0.46917077893640924 1.0710570458332853 -0.16681122080413718 0.0
C C 0.47064529171642017 1.2385491904096468 -0.15870747947272046 0.0
H H 0.4938764917164201 1.3047191904096467 -0.13408747947272046 0.0
C C 0.4281700511117066 1.2776166028784144 -0.2199229425807229 0.0
H H 0.4254612511117065 1.3755866028784145 -0.23150294258072288 0.0
C C 0.5614972840172636 0.8526262400527999 -0.024897350951217347 0.0
H H 0.5718861840172638 0.7573962400527999 -0.02767545095121734 0.0
C C 0.5233317727704169 0.9178812314789198 -0.10504596697608558 0.0
H H 0.505960572770417 0.8532512314789197 -0.14122596697608558 0.0
C C 0.5158471267657196 1.043868668014351 -0.09105832360034445 0.0
C C 0.5409849545527023 1.1218982292968445 -0.05634611491051102 0.0
H H 0.5309438545527024 1.2168682292968442 -0.05141431491051102 0.0
C C 0.5761623295420653 1.0616659369418862 0.006101442691827639 0.0
H H 0.5940212295420654 1.123835936941886 0.04309324269182764 0.0
Zn Zn 0.6856801707452964 1.3109963062764123 0.840230196886057 0.0
Zn Zn 0.6684201766680128 0.900113231173976 1.049117682069717 0.0
O O 0.7252153552432105 1.1593262611624973 0.7992530133027325 0.0
O O 0.6803394878503604 1.109287140946851 0.9195860988921308 0.0
O O 0.7068917014767929 0.8948462546096103 0.9604248076278433 0.0
O O 0.7973680717484253 0.7976991140716484 0.9009606784317585 0.0
O O 0.8695198256405707 0.9064661633568537 0.9763946688729627 0.0
O O 0.8095951780340899 0.9394374242277366 0.7375953422053301 0.0
O O 0.8585747611119643 1.117977498520459 0.7374329453027076 0.0
O O 0.8182387491402362 1.4285820775678904 0.8882626423986996 0.0
O O 0.7338347893437343 1.3957879803366424 0.8973377588777449 0.0
N N 0.6151385791768572 1.2348451231505206 0.7493495383034932 0.0
N N 0.3988531750640359 0.9326521543181592 0.5182242222520238 0.0
C C 0.754424993378327 1.0512733592337815 0.844307211074472 0.0
H H 0.7498859933783271 0.9637533592337814 0.811605811074472 0.0
C C 0.7972256774289378 1.034908378600605 0.8925857508101579 0.0
H H 0.7975666774289376 1.091978378600605 0.9412843508101579 0.0
C C 0.8166467487790512 1.1206538146149234 0.834586243281083 0.0
H H 0.8453177487790513 1.1734238146149236 0.863144843281083 0.0
C C 0.7781789981346949 1.241611702457985 0.8057478604630829 0.0
H H 0.7812699981346949 1.2751917024579849 0.7519964604630827 0.0
C C 0.7067787046885847 1.0546987067723004 0.9011854222081199 0.0
C C 0.8396189962181358 0.8616260630430228 0.9335772900520358 0.0
C C 0.8463198312603132 1.077128701260978 0.7637658036299414 0.0
C C 0.7737840846547406 1.3671120254172835 0.8708509428828943 0.0
C C 0.6042005942983274 0.9966593412159928 0.7449632988388982 0.0
H H 0.6286494942983274 0.9336293412159927 0.7691814988388982 0.0
C C 0.5608960559114688 1.0103870236008248 0.7138071302699618 0.0
H H 0.5589848559114688 0.9115570236008247 0.7044652302699619 0.0
C C 0.5232121708719438 1.086528430378874 0.6588059204053552 0.0
C C 0.5206106872796743 1.2221932216295486 0.6952745094641076 0.0
H H 0.4973794872796743 1.2883632216295486 0.6706545094641075 0.0
C C 0.5749445831721165 1.2811671276250454 0.7475957907254055 0.0
H H 0.5776533831721166 1.3791371276250457 0.7591757907254055 0.0
C C 0.4331852210591322 0.8340145501417547 0.5520658702939494 0.0
H H 0.42279632105913223 0.7387845501417547 0.5548439702939494 0.0
C C 0.46506361684519465 0.8876443669023996 0.6190657696930889 0.0
H H 0.4824348168451945 0.8230143669023996 0.655245769693089 0.0
C C 0.4873781186556856 1.0540470342910844 0.6082828882633659 0.0
C C 0.45663382253175205 1.1473238171397713 0.5400146503487853 0.0
H H 0.466674922531752 1.2422938171397713 0.5350828503487854 0.0
C C 0.4203262223931785 1.0570029076287712 0.5231306465544483 0.0
H H 0.4024673223931785 1.119172907628771 0.48613884655444844 0.0
Zn Zn 0.17212156312672228 -0.778565021831 0.34175978591861167 0.0
Zn Zn 0.16770128274368384 -0.3947734539660917 0.5508637084672596 0.0
O O 0.24042227851162234 -0.6554177955751019 0.30111226376990335 0.0
O O 0.1865529897704365 -0.6347406175336061 0.4183740569874011 0.0
O O 0.19623338191742715 -0.4225069126978999 0.4581983742073293 0.0
O O 0.3033800778669649 -0.2820321103177334 0.41277613711343497 0.0
O O 0.36669037744223154 -0.39086930276905135 0.4651066565459289 0.0
O O 0.3035296340524871 -0.4212801928281857 0.2378107003494949 0.0
O O 0.3698242417246107 -0.6264573248102616 0.24640655776419926 0.0
O O 0.3208899953727617 -0.9476241161545206 0.37129415091093015 0.0
O O 0.24306361877494093 -0.898783303041817 0.40396734302860987 0.0
N N 0.11546813398260353 -0.7272494459687014 0.26900371906306986 0.0
N N -0.10561531157065669 -0.4270821647062328 0.011176464136782692 0.0
C C 0.24411237832283453 -0.5398715972017772 0.3638656351104963 0.0
H H 0.23957337832283454 -0.45235159720177714 0.3311642351104963 0.0
C C 0.2987416195324783 -0.5414385183986146 0.409894651068582 0.0
H H 0.29908261953247833 -0.5985085183986146 0.45859325106858206 0.0
C C 0.3241980858166311 -0.6475847452868058 0.3093521708372859 0.0
H H 0.35286908581663107 -0.7003547452868056 0.3379107708372859 0.0
C C 0.2756805329503592 -0.762082250288915 0.313326301189827 0.0
H H 0.2787715329503592 -0.7956622502889151 0.259574901189827 0.0
C C 0.213051826431152 -0.49753497641300476 0.4179007505475176 0.0
C C 0.31966584219169675 -0.40529296275482113 0.41804746356076167 0.0
C C 0.3307170766931792 -0.5386694604034794 0.25973271609612186 0.0
C C 0.2844519138328971 -0.8677772963033764 0.3624659097912587 0.0
C C 0.10608445885075157 -0.5698282539346131 0.250461144768873 0.0
H H 0.13053335885075157 -0.5067982539346131 0.274679344768873 0.0
C C 0.06545915945699256 -0.5229815071965316 0.18644981500712404 0.0
H H 0.06354795945699253 -0.42415150719653155 0.17710791500712408 0.0
C C 0.0346862437803717 -0.5821998260245518 0.1387603614132505 0.0
C C 0.028791984495449036 -0.7287280093665852 0.17622206484936276 0.0
H H 0.00556078449544904 -0.7948980093665852 0.15160206484936273 0.0
C C 0.07509739446805544 -0.770878082016631 0.2495757090466243 0.0
H H 0.07780619446805544 -0.8688480820166311 0.2611557090466243 0.0
C C -0.06835420235574866 -0.347069989859767 0.04640828558853275 0.0
H H -0.07874310235574865 -0.25183998985976697 0.04918638558853274 0.0
C C -0.030915784017844866 -0.3518404134763395 0.10174005950179849 0.0
H H -0.013544584017844863 -0.2872104134763396 0.13792005950179848 0.0
C C -0.009928618541315895 -0.5146704775426436 0.10537445381645262 0.0
C C -0.04242660769022199 -0.6033518655765641 0.05699602046587501 0.0
H H -0.03238550769022199 -0.6983218655765641 0.052064220465875014 0.0
C C -0.09014671746551972 -0.5617875976850751 0.02001117987818789 0.0
H H -0.10800561746551973 -0.6239575976850751 -0.01698062012181211 0.0
Zn Zn -0.1754257528026549 -0.7774330181782888 -0.8431654533083731 0.0
Zn Zn -0.16971670538370762 -0.3901266565095927 -1.0461848559310583 0.0
O O -0.23339648181288578 -0.6546864971111009 -0.8177246240456523 0.0
O O -0.16935111719303395 -0.6544970736837247 -0.9181239389281745 0.0
O O -0.19002107452248737 -0.4150091685172056 -0.9551864101878708 0.0
O O -0.30204902652480786 -0.2733300226419314 -0.8884198200920895 0.0
O O -0.36710114677557415 -0.4106016637192169 -0.9531163037836438 0.0
O O -0.31966126747675794 -0.42269746429014843 -0.7537504962938817 0.0
O O -0.37430075365366255 -0.5951816132446344 -0.7329229593350505 0.0
O O -0.32366226925826475 -0.9582438539727877 -0.8783356717542279 0.0
O O -0.24536299343774698 -0.9046082819916068 -0.9016018395676173 0.0
N N -0.11101370304794346 -0.6950177718466496 -0.7575063111806668 0.0
N N 0.10653942740208887 -0.40084893639068975 -0.4936204165125774 0.0
C C -0.24850083209704626 -0.5420530657061224 -0.8603387497696804 0.0
H H -0.24396183209704628 -0.4545330657061224 -0.8276373497696804 0.0
C C -0.29639604448282125 -0.555506843453526 -0.892029456610671 0.0
H H -0.2967370444828213 -0.6125768434535259 -0.940728056610671 0.0
C C -0.33308121998426193 -0.6312214760143893 -0.8491793611996952 0.0
H H -0.36175221998426194 -0.6839914760143893 -0.8777379611996952 0.0
C C -0.2817779612509868 -0.7472637913762015 -0.8215761341940833 0.0
H H -0.2848689612509868 -0.7808437913762016 -0.767824734194083 0.0
C C -0.2184189358188121 -0.5287227470485338 -0.920345254991044 0.0
C C -0.32334551590726585 -0.4290197195637767 -0.9210000347745135 0.0
C C -0.3332784736517163 -0.573035169860492 -0.7601637315833844 0.0
C C -0.2722348546417261 -0.8488347248548572 -0.8570226070675265 0.0
C C -0.11020134430935143 -0.5378521595278911 -0.7311189741809623 0.0
H H -0.13465024430935144 -0.4748221595278911 -0.7553371741809622 0.0
C C -0.06206414023539524 -0.5336823885495142 -0.7100060716314375 0.0
H H -0.06015294023539525 -0.4348523885495142 -0.7006641716314375 0.0
C C -0.02760532166611237 -0.5857685621168728 -0.6520947039073541 0.0
C C -0.0211580189428609 -0.7438412599317356 -0.6836180864558091 0.0
H H 0.0020731810571390967 -0.8100112599317355 -0.658998086455809 0.0
C C -0.0656670686707223 -0.7787852883770183 -0.7592513498355172 0.0
H H -0.06837586867072229 -0.8767552883770185 -0.7708313498355172 0.0
C C 0.08470050620477236 -0.35262977351299696 -0.543322919560871 0.0
H H 0.09508940620477237 -0.2573997735129969 -0.546101019560871 0.0
C C 0.03135998439742556 -0.3873453191074084 -0.610590415191027 0.0
H H 0.013988784397425541 -0.3227153191074084 -0.646770415191027 0.0
C C 0.004146758737045049 -0.5474775052308591 -0.6205487643765503 0.0
C C 0.05050780617643397 -0.6188363282614165 -0.5588519920887424 0.0
H H 0.040466706176433956 -0.7138063282614165 -0.5539201920887425 0.0
C C 0.09235965607077311 -0.5603202669028673 -0.48363192379254627 0.0
H H 0.1102185560707731 -0.6224902669028674 -0.44664012379254636 0.0
Zn Zn 0.6830332863925036 -0.2829404168481974 0.3408019794174398 0.0
Zn Zn 0.6773641548625913 0.11498367223967906 0.5623313383970096 0.0
O O 0.7222325096734371 -0.16340538625438653 0.3064607783774198 0.0
O O 0.6762138201218837 -0.1632120650089338 0.43390129013399814 0.0
O O 0.7118866213277752 0.08101561054522592 0.4727475796632812 0.0
O O 0.7983926823314074 0.23596139813647354 0.40574770776636643 0.0
O O 0.8617978555813 0.09606084895923375 0.4758900365664353 0.0
O O 0.8081955409979841 0.044552137813762265 0.23910541673758062 0.0
O O 0.840850299906418 -0.14764070331889212 0.20390681877827466 0.0
O O 0.8156510577065086 -0.4554758396430409 0.373881406989658 0.0
O O 0.7475609943469995 -0.4121410354340681 0.4020646803491352 0.0
N N 0.6102860269637498 -0.153867699537993 0.25617356552600457 0.0
N N 0.4078244831942777 0.033882614022351994 0.015635086711053875 0.0
C C 0.7413572351080293 -0.01864213348008418 0.3512546982270271 0.0
H H 0.7368182351080292 0.06887786651991586 0.3185532982270271 0.0
C C 0.7993581114769264 -0.02976294251492746 0.3904966929915649 0.0
H H 0.7996991114769263 -0.08683294251492742 0.43919529299156496 0.0
C C 0.8193908812691121 -0.13836181479796994 0.3211849522152286 0.0
H H 0.8480618812691122 -0.19113181479796992 0.34974355221522857 0.0
C C 0.7823066487546154 -0.24348317272395287 0.3074830732602843 0.0
H H 0.7853976487546154 -0.2770631727239529 0.25373167326028434 0.0
C C 0.7110366901058516 -0.02974731326212572 0.42487387278465644 0.0
C C 0.830939782338818 0.07983850722212256 0.4157728427344895 0.0
C C 0.8398006529602423 -0.08898824124055438 0.2689784110026545 0.0
C C 0.7810403356623911 -0.36603095590723883 0.372903853519468 0.0
C C 0.6160503724385108 -0.0678964589712144 0.24249930967252867 0.0
H H 0.6404992724385108 -0.004866458971214382 0.26671750967252866 0.0
C C 0.56785511326443 0.03259397715376708 0.22426862809522832 0.0
H H 0.5659439132644297 0.13142397715376705 0.21492672809522836 0.0
C C 0.5412455425186219 -0.05310211213281668 0.16405172637721535 0.0
C C 0.5348112174945685 -0.2214798310546767 0.18033053970614202 0.0
H H 0.5115800174945686 -0.2876498310546766 0.155710539706142 0.0
C C 0.5770773914690938 -0.3116733383874811 0.2266785911722303 0.0
H H 0.5797861914690938 -0.4096433383874811 0.2382585911722303 0.0
C C 0.4281955959916402 0.19227042741210465 0.03607213891474965 0.0
H H 0.41780669599164016 0.2875004274121047 0.038850238914749646 0.0
C C 0.4686571299371367 0.1000200820891678 0.08935417611392532 0.0
H H 0.48602832993713674 0.16465008208916776 0.1255341761139253 0.0
C C 0.49592150586749895 -0.05156598431524412 0.10651164369067168 0.0
C C 0.4592005544101776 -0.16808825321330206 0.0332629002540664 0.0
H H 0.46924165441017757 -0.26305825321330206 0.028331100254066405 0.0
C C 0.4177349022738998 -0.09289459850318457 0.024333292775839368 0.0
H H 0.39987600227389986 -0.1550645985031845 -0.012658507224160634 0.0
Zn Zn 0.3270940120067596 -0.2820894374725433 -0.8358955444729284 0.0
Zn Zn 0.3303017364010041 0.09789393716518381 -1.0471507765028758 0.0
O O 0.2610645615739106 -0.1624139377334543 -0.8008729258176911 0.0
O O 0.3359620060109579 -0.129939199971849 -0.931277859159338 0.0
O O 0.28829703928490263 0.0819185686687568 -0.9538032250901453 0.0
O O 0.18801376214077062 0.2044587065415927 -0.8987073462230212 0.0
O O 0.14791450630597858 0.07922386350266208 -0.9640993861699038 0.0
O O 0.18430805405939812 0.03698810957078944 -0.7522352136605857 0.0
O O 0.1318657331512583 -0.12276547764802202 -0.7316327901075379 0.0
O O 0.19208365050553963 -0.42645875617182555 -0.8621991380791649 0.0
O O 0.2545571467217712 -0.36122107319505214 -0.8859617955198655 0.0
N N 0.3717748074368226 -0.20762991855211801 -0.7730746714336303 0.0
N N 0.6041014010473407 0.07428398144197931 -0.5122042536841482 0.0
C C 0.26483270047387275 -0.01453300332759717 -0.8537973170464538 0.0
H H 0.2693717004738727 0.07298699667240287 -0.8210959170464538 0.0
C C 0.20265563537435158 -0.0471220834460545 -0.9102304855205644 0.0
H H 0.20231463537435157 -0.10419208344605445 -0.9589290855205643 0.0
C C 0.18328443376028533 -0.11245151506693592 -0.8492044159289213 0.0
H H 0.1546134337602853 -0.1652215150669359 -0.8777630159289213 0.0
C C 0.21844979252815414 -0.22397323883347797 -0.814865143959929 0.0
H H 0.21535879252815415 -0.257553238833478 -0.7611137439599289 0.0
C C 0.30157736924480383 -0.04501013695324875 -0.9153398824195267 0.0
C C 0.17652493867260438 0.09263508646135271 -0.9319011576246556 0.0
C C 0.16689369616068989 -0.06919991129911335 -0.7669778709469025 0.0
C C 0.22975731927219878 -0.3826827368721005 -0.8531101525462648 0.0
C C 0.385653831991161 -0.020856776588768135 -0.7562633720335469 0.0
H H 0.361204931991161 0.04217322341123189 -0.7804815720335468 0.0
C C 0.4271350725886448 0.0026647145381806085 -0.6856792553916081 0.0
H H 0.4290462725886448 0.10149471453818058 -0.6763373553916081 0.0
C C 0.4679236679345205 -0.104511028323194 -0.6756894825781091 0.0
C C 0.47016111092252394 -0.2025459439257932 -0.7038827661729307 0.0
H H 0.4933923109225239 -0.2687159439257931 -0.6792627661729307 0.0
C C 0.4066528284640691 -0.31682249098968335 -0.7413495177173813 0.0
H H 0.4039440284640691 -0.41479249098968335 -0.7529295177173813 0.0
C C 0.5737616512449508 0.12406094260976264 -0.5604147376454655 0.0
H H 0.5841505512449507 0.21929094260976267 -0.5631928376454655 0.0
C C 0.5323352389086213 0.09988779118376423 -0.6057276656348753 0.0
H H 0.5149640389086214 0.16451779118376422 -0.6419076656348753 0.0
C C 0.5120773302550016 -0.05153998216806177 -0.629416197677028 0.0
C C 0.5541157013911422 -0.13023455168643389 -0.5662374130040998 0.0
H H 0.5440746013911422 -0.22520455168643386 -0.5613056130041 0.0
C C 0.5852984161604438 -0.06760441841884944 -0.48623689929086217 0.0
H H 0.6031573161604438 -0.1297744184188494 -0.44924509929086226 0.0
