_cell_length_a 27.1013
_cell_length_b 9.27321
_cell_length_c 16.979215
_cell_angle_alpha 90.0
_cell_angle_beta 99.1565
_cell_angle_gamma 90.0
_symmetry_space_group_name_H-M         'P 1'
_symmetry_Int_Tables_number            1
loop_
_symmetry_equiv_pos_as_xyz
   'x, y, z'
                         
loop_
_atom_site_label
_atom_site_type_symbol
_atom_site_fract_x 
_atom_site_fract_y
_atom_site_fract_z
_atom_site_charge
Zn Zn -0.16844178062039455 0.8067056561911928 -0.34893080402626164 0.0
Zn Zn -0.1798351264939239 0.393781909117973 -0.5506259437263272 0.0
O O -0.236183254770458 0.6552966868637741 -0.3139564350813539 0.0
O O -0.18224632462845097 0.6286007216244782 -0.43196890972138274 0.0
O O -0.2056588928051861 0.41445295809155247 -0.44318118238554893 0.0
O O -0.29142429902356 0.272466075241431 -0.40814042923004895 0.0
O O -0.36489615556733745 0.3955254881013839 -0.46873760687449084 0.0
O O -0.3073064964542153 0.4397532242015514 -0.24901895780399663 0.0
O O -0.37583000721460175 0.6264514480728176 -0.23023106983024513 0.0
O O -0.3161966414545778 0.9489515636273963 -0.38255803403359623 0.0
O O -0.24076459717713972 0.9072335400655789 -0.41019340354444894 0.0
N N -0.10741438410185576 0.6857199809038639 -0.25935627357545593 0.0
N N 0.09382075231546017 0.43529487815370477 -0.023667685392882404 0.0
C C -0.23295008890251484 0.5304250399309901 -0.3580583506232793 0.0
H H -0.22841108890251485 0.4429050399309901 -0.3253569506232793 0.0
C C -0.30932786837430337 0.5478332552763177 -0.408001333558001 0.0
H H -0.3096688683743034 0.6049032552763177 -0.456699933558001 0.0
C C -0.3190335555479869 0.6434603199890164 -0.3299611635650701 0.0
H H -0.34770455554798685 0.6962303199890164 -0.3585197635650701 0.0
C C -0.2774190957092753 0.749412051062743 -0.31258835596802353 0.0
H H -0.2805100957092753 0.782992051062743 -0.25883695596802353 0.0
C C -0.21820154274894743 0.5149756446933806 -0.41507218400706697 0.0
C C -0.3192583045376321 0.37697941793287487 -0.4349880137851321 0.0
C C -0.3261672143650405 0.5555676360974534 -0.2640879787995005 0.0
C C -0.26807068693143127 0.8543773310516738 -0.358035916502654 0.0
C C -0.10561372982320867 0.5652393713393992 -0.23895595606963144 0.0
H H -0.13006262982320868 0.5022093713393991 -0.26317415606963146 0.0
C C -0.07721159330326881 0.4825465744340703 -0.1926843853852605 0.0
H H -0.0753003933032688 0.3837165744340702 -0.18334248538526055 0.0
C C -0.024915343966553986 0.5752048326603129 -0.16101800577264233 0.0
C C -0.028467663402370585 0.7287673792417659 -0.17466561443237738 0.0
H H -0.005236463402370591 0.7949373792417659 -0.15004561443237735 0.0
C C -0.07580417614633131 0.8013676162820095 -0.22377586488401174 0.0
H H -0.07851297614633132 0.8993376162820096 -0.23535586488401172 0.0
C C 0.07219839628443554 0.3431428419661244 -0.060629434883187165 0.0
H H 0.08258729628443556 0.24791284196612431 -0.06340753488318716 0.0
C C 0.03003558468571742 0.3978385792825944 -0.10830925714286688 0.0
H H 0.012664384685717425 0.3332085792825945 -0.14448925714286687 0.0
C C 0.016977354223617548 0.5514572596948886 -0.11321698903965158 0.0
C C 0.038792308642110536 0.6549772589197637 -0.048207861818814694 0.0
H H 0.02875120864211054 0.7499472589197637 -0.0432760618188147 0.0
C C 0.08371849720706805 0.566216503465454 -0.00044089899794758937 0.0
H H 0.10157739720706807 0.628386503465454 0.03655090100205242 0.0
Zn Zn 0.16720965034961174 0.8232676304353582 0.8457608218315156 0.0
Zn Zn 0.16387737346390852 0.41154045531142125 1.0289061099954109 0.0
O O 0.22952931479580713 0.6842590268031822 0.7988321136078209 0.0
O O 0.18730158584701248 0.6260454368327202 0.9317062675818844 0.0
O O 0.20415778960537992 0.42495635543476207 0.9309487284292342 0.0
O O 0.284409291056814 0.2821929685339161 0.9096559072781724 0.0
O O 0.3597028162240692 0.3988980468765473 0.9797370652096684 0.0
O O 0.3201918218474138 0.411116432122367 0.75703282488099 0.0
O O 0.3551313829846455 0.6088104891173626 0.7264555774096608 0.0
O O 0.31443373585590423 0.92873539606121 0.8905592941098172 0.0
O O 0.24571008774201872 0.8961924948807228 0.9045122739640887 0.0
N N 0.10892713937042864 0.7091733705106028 0.7630160264892937 0.0
N N -0.10378977594017713 0.45915749397273625 0.5114508246810385 0.0
C C 0.24895225463314571 0.5360350677185405 0.8600555869268466 0.0
H H 0.2444132546331457 0.44851506771854044 0.8273541869268466 0.0
C C 0.30105074166150964 0.5402764598745899 0.9024699919048221 0.0
H H 0.30139174166150967 0.5973464598745899 0.9511685919048222 0.0
C C 0.32054768252741356 0.6273934835374649 0.836579671096962 0.0
H H 0.3492186825274136 0.6801634835374649 0.865138271096962 0.0
C C 0.28180411835261565 0.746193926519869 0.8190830682979084 0.0
H H 0.28489511835261566 0.7797739265198692 0.7653316682979082 0.0
C C 0.20650195829280749 0.5261282091692024 0.9244727886686972 0.0
C C 0.31673194630497464 0.39968544268741674 0.9152866709305172 0.0
C C 0.3395366377190026 0.545557863577509 0.7675457328601438 0.0
C C 0.27916959983774525 0.8962867685266214 0.8624077617183757 0.0
C C 0.11506452232191665 0.5616524332214292 0.7463259692772443 0.0
H H 0.13951342232191663 0.49862243322142913 0.7705441692772443 0.0
C C 0.08007856431365995 0.49426891747710944 0.6965951942417131 0.0
H H 0.07816736431365995 0.3954389174771094 0.6872532942417132 0.0
C C 0.025863762153063883 0.6076100249160225 0.6664815393332956 0.0
C C 0.03986682251200654 0.7602890924783668 0.671965885476012 0.0
H H 0.016635622512006547 0.8264590924783668 0.6473458854760119 0.0
C C 0.08569851546227573 0.7793922054434841 0.7204334608230208 0.0
H H 0.08840731546227572 0.8773622054434843 0.7320134608230209 0.0
C C -0.07501058429939456 0.3291088912208584 0.5471389928918883 0.0
H H -0.08539948429939459 0.23387889122085834 0.5499170928918883 0.0
C C -0.02654813528851141 0.4363605049925633 0.5997778811687309 0.0
H H -0.009176935288511412 0.3717305049925633 0.6359578811687309 0.0
C C -0.01910602095330201 0.563642725942269 0.5812501380206985 0.0
C C -0.04219230615350677 0.648835271159202 0.5345438434625287 0.0
H H -0.03215120615350676 0.743805271159202 0.5296120434625289 0.0
C C -0.0895416562524866 0.57797331792299 0.4821481985235914 0.0
H H -0.10740055625248662 0.6401433179229901 0.44515639852359157 0.0
Zn Zn 0.3296441248188514 1.29553820173574 -0.341616895831851 0.0
Zn Zn 0.33439194024527985 0.878722152687502 -0.5357401330014689 0.0
O O 0.2630252339987914 1.1516300777951471 -0.30141533255193076 0.0
O O 0.3201146855757865 1.1387800931216758 -0.4223362806539442 0.0
O O 0.29295249457706873 0.8974638528004683 -0.45770591438506636 0.0
O O 0.1979488026249775 0.7889532740544118 -0.3855809409041332 0.0
O O 0.1441739269940106 0.9088427150680903 -0.4573487490570549 0.0
O O 0.17360103334439833 0.9288823435147013 -0.2694031994446231 0.0
O O 0.13573194134124333 1.1133948981023665 -0.23772040771611422 0.0
O O 0.17554838631615904 1.4170512667783566 -0.3704115491758026 0.0
O O 0.25075526460815756 1.4004965840611894 -0.39993777528107977 0.0
N N 0.3876235864654775 1.1948083336915927 -0.27607501191199163 0.0
N N 0.5929629460281178 0.9646778081288215 0.0051738945078602895 0.0
C C 0.258063819685445 1.0203203308545932 -0.35634920104721135 0.0
H H 0.26260281968544497 0.932800330854593 -0.32364780104721136 0.0
C C 0.19451726272876027 1.0506813178625933 -0.4051922288122762 0.0
H H 0.19417626272876026 1.1077513178625933 -0.45389082881227616 0.0
C C 0.18684698575029574 1.0940120488468836 -0.355948853151439 0.0
H H 0.15817598575029573 1.146782048846884 -0.38450745315143897 0.0
C C 0.23216628968582018 1.2369432595805006 -0.3004157931459093 0.0
H H 0.22907528968582017 1.2705232595805005 -0.24666439314590932 0.0
C C 0.3059011214762259 1.0121567916609115 -0.4031063086987376 0.0
C C 0.1756423444040758 0.9061937621720717 -0.424979807423292 0.0
C C 0.15514934014436788 1.0651500684530626 -0.26651027555165524 0.0
C C 0.22599073545433324 1.3578832657569853 -0.3648183131280538 0.0
C C 0.3898724802024976 1.0447652195239876 -0.2561668715683393 0.0
H H 0.3654235802024977 0.9817352195239877 -0.2803850715683393 0.0
C C 0.4440040539564543 1.0049947412146756 -0.18895670787042873 0.0
H H 0.44591525395645426 0.9061647412146756 -0.17961480787042874 0.0
C C 0.47807089648348056 1.1137537271688385 -0.16468812547307657 0.0
C C 0.4607375010279289 1.2365164149879768 -0.18828591219804452 0.0
H H 0.4839687010279287 1.3026864149879769 -0.1636659121980445 0.0
C C 0.4315588107531387 1.26819864682357 -0.24060896242878926 0.0
H H 0.4288500107531386 1.36616864682357 -0.25218896242878924 0.0
C C 0.5484517420491182 0.8568427451308014 -0.02274668352676275 0.0
H H 0.5588406420491182 0.7616127451308013 -0.025524783526762743 0.0
C C 0.521192213672657 0.9069744258615333 -0.10234831682910248 0.0
H H 0.5038210136726571 0.8423444258615334 -0.1385283168291025 0.0
C C 0.5072952904522696 1.0548095830150646 -0.10737542829373273 0.0
C C 0.5357998892839809 1.1268368309132806 -0.04946214698003765 0.0
H H 0.5257587892839809 1.2218068309132804 -0.044530346980037654 0.0
C C 0.575559852410883 1.100921768906617 0.010719222020646334 0.0
H H 0.593418752410883 1.163091768906617 0.04771102202064634 0.0
Zn Zn 0.6733239922925042 1.3344688653615944 0.8325621714301866 0.0
Zn Zn 0.6677387706319846 0.8809508209822892 1.0490148538061577 0.0
O O 0.7348376821978128 1.1422851720433305 0.8133457905148417 0.0
O O 0.6846018019412895 1.1310448848615509 0.9416406790030073 0.0
O O 0.7106258198331057 0.8831209611865825 0.981090102021994 0.0
O O 0.7985928796214408 0.7795639201353672 0.9074715716359169 0.0
O O 0.86778819686448 0.9064972039055704 0.9622109407975984 0.0
O O 0.818703749488787 0.9425768368476048 0.758398083357224 0.0
O O 0.8614027251651296 1.1301933295645035 0.7374582234713012 0.0
O O 0.8198503215658625 1.4458441608662058 0.892430950240799 0.0
O O 0.7420452082301543 1.4069867742539433 0.9030690267712073 0.0
N N 0.6079659560546395 1.2012523557547803 0.7663225934217965 0.0
N N 0.40472544114928904 0.9319690975160292 0.5102354817346222 0.0
C C 0.742148585803609 1.0317684151902649 0.8685058456064171 0.0
H H 0.7376095858036091 0.9442484151902648 0.8358044456064171 0.0
C C 0.7951196950583059 1.0649899727685455 0.9096275533737821 0.0
H H 0.7954606950583059 1.1220599727685454 0.958326153373782 0.0
C C 0.8226475731148959 1.135904690811172 0.8299624758536948 0.0
H H 0.851318573114896 1.1886746908111723 0.8585210758536947 0.0
C C 0.7871421140179162 1.2365753581243504 0.8124351231159535 0.0
H H 0.7902331140179161 1.2701553581243505 0.7586837231159533 0.0
C C 0.7150948178395484 1.0352816115404553 0.908698486162592 0.0
C C 0.8250319842879982 0.8745141599038903 0.9190278358450128 0.0
C C 0.834851727276235 1.0248643716822377 0.7578610313086144 0.0
C C 0.7745854912312815 1.3704563712739082 0.8567008444646119 0.0
C C 0.6036459727975966 1.110070423679683 0.7425989036099895 0.0
H H 0.6280948727975967 1.0470404236796829 0.7668171036099894 0.0
C C 0.5739373510718275 1.0129296281582658 0.7128243412949439 0.0
H H 0.5720261510718274 0.9140996281582658 0.703482441294944 0.0
C C 0.5298340998673854 1.0934650670347592 0.6584484150373925 0.0
C C 0.5450680973587833 1.2349942774251075 0.6595587533996565 0.0
H H 0.5218368973587834 1.3011642774251075 0.6349387533996564 0.0
C C 0.5658625187399642 1.2761640903635034 0.7168396262485255 0.0
H H 0.5685713187399642 1.3741340903635038 0.7284196262485255 0.0
C C 0.41127557784650215 0.8689471503844193 0.5524710355215047 0.0
H H 0.4008866778465021 0.7737171503844193 0.5552491355215047 0.0
C C 0.45971566297325667 0.8932909421094277 0.6050014392036727 0.0
H H 0.4770868629732566 0.8286609421094279 0.6411814392036727 0.0
C C 0.48035016338811487 1.0346722451370103 0.6069199896554288 0.0
C C 0.45807516830294287 1.1233862772985026 0.5399693506226139 0.0
H H 0.46811626830294284 1.2183562772985024 0.5350375506226139 0.0
C C 0.41291858625370575 1.0845689326197072 0.49916399272931916 0.0
H H 0.3950596862537058 1.146738932619707 0.46217219272931925 0.0
Zn Zn 0.17005995413846828 -0.7774574875599682 0.3392254190659171 0.0
Zn Zn 0.16586535761785215 -0.3682763143148188 0.5260329527080296 0.0
O O 0.2353831997104158 -0.658295976812117 0.30034605454326885 0.0
O O 0.17727447315950579 -0.6401353619254009 0.42688008636422375 0.0
O O 0.22606566998517622 -0.44144490134951025 0.47141945867526946 0.0
O O 0.3158945712679726 -0.2892485693131723 0.3745917286000134 0.0
O O 0.358854034677765 -0.41345836979007766 0.4674902757913871 0.0
O O 0.3166889964370087 -0.4197959894750799 0.2644420541306488 0.0
O O 0.39131813170967156 -0.5939443947584074 0.25324703447548624 0.0
O O 0.31892940761540944 -0.9233724174554836 0.3638454986991218 0.0
O O 0.2405908203398704 -0.8690290586286686 0.4074378330104891 0.0
N N 0.10697729567407384 -0.7087409463864242 0.25955353980813684 0.0
N N -0.08311364941965128 -0.41372153043669974 0.01424003945052091 0.0
C C 0.2451895654141147 -0.5365171104790207 0.3670692630864205 0.0
H H 0.24065056541411473 -0.44899711047902074 0.3343678630864206 0.0
C C 0.30689915642419996 -0.5277322148382876 0.3876673773126857 0.0
H H 0.30724015642419994 -0.5848022148382876 0.43636597731268567 0.0
C C 0.3280624323925332 -0.6409458967368342 0.33845120089680203 0.0
H H 0.3567334323925332 -0.6937158967368342 0.367009800896802 0.0
C C 0.27293575831138733 -0.7673671074686202 0.30479551792253395 0.0
H H 0.27602675831138734 -0.8009471074686204 0.25104411792253395 0.0
C C 0.2026651999588897 -0.5240693645832191 0.4213922291521977 0.0
C C 0.3119896933672286 -0.3810384073366424 0.40287225883483957 0.0
C C 0.3374905140243999 -0.5638407386506405 0.27181876009796385 0.0
C C 0.27528655559605264 -0.8832415194162052 0.3573514500514013 0.0
C C 0.11570727520316078 -0.5393781660391398 0.2448577030548136 0.0
H H 0.1401561752031608 -0.47634816603913976 0.2690759030548136 0.0
C C 0.07114276074911773 -0.5215725405976835 0.19676797728701545 0.0
H H 0.06923156074911771 -0.42274254059768346 0.1874260772870155 0.0
C C 0.029881457777421586 -0.5950860907973056 0.1601204108750019 0.0
C C 0.03708223060322806 -0.6989572187501725 0.164915893272936 0.0
H H 0.013851030603228063 -0.7651272187501724 0.14029589327293598 0.0
C C 0.07306103283637207 -0.8135403675666517 0.23001296060360743 0.0
H H 0.07576983283637206 -0.9115103675666518 0.2415929606036074 0.0
C C -0.06883373678733079 -0.3351635372114955 0.044680503210222475 0.0
H H -0.0792226367873308 -0.23993353721149546 0.047458603210222466 0.0
C C -0.02760973739902516 -0.39236540317854307 0.11335606043740812 0.0
H H -0.010238537399025163 -0.32773540317854316 0.1495360604374081 0.0
C C -0.006063741827595546 -0.5322411697837418 0.10770927532056404 0.0
C C -0.043917291417346335 -0.6023049093648688 0.04068208177840762 0.0
H H -0.03387619141734633 -0.6972749093648689 0.035750281778407625 0.0
C C -0.08211714200336245 -0.5982580549197629 0.018517288664685203 0.0
H H -0.09997604200336246 -0.6604280549197629 -0.0184745113353148 0.0
Zn Zn -0.17053350408794588 -0.7960804832501241 -0.8435069646887077 0.0
Zn Zn -0.17640403111954625 -0.3815192842421186 -1.0442297156002387 0.0
O O -0.22936205070433305 -0.6737954193243213 -0.8064764730232578 0.0
O O -0.18472665426600576 -0.6557488637395477 -0.9348262653785924 0.0
O O -0.21492080923787607 -0.39627460593167707 -0.9490023737683697 0.0
O O -0.31698299560079146 -0.28056332498183795 -0.8995788206112275 0.0
O O -0.36417989487389013 -0.3806759849477941 -0.9662923759109882 0.0
O O -0.30843227024138636 -0.44612640232984124 -0.7363374104912328 0.0
O O -0.365111829797566 -0.5925494750196214 -0.7336542579921137 0.0
O O -0.3145304784363561 -0.9396866344615407 -0.8587052915896582 0.0
O O -0.23980468533812777 -0.8583705822699476 -0.8805377374464829 0.0
N N -0.118058971612672 -0.6960085912595148 -0.7728339119584349 0.0
N N 0.09499197088403796 -0.45850828020309087 -0.4934699034799664 0.0
C C -0.24062032195763472 -0.5576809681962305 -0.8562573437095634 0.0
H H -0.2360813219576347 -0.4701609681962305 -0.8235559437095634 0.0
C C -0.30371019985220477 -0.5435506197504715 -0.9091945626864033 0.0
H H -0.3040511998522048 -0.6006206197504714 -0.9578931626864035 0.0
C C -0.3228906851279737 -0.6475912084504197 -0.8358639518089529 0.0
H H -0.35156168512797376 -0.7003612084504197 -0.8644225518089529 0.0
C C -0.27011222205161617 -0.7459248797287085 -0.805605706301508 0.0
H H -0.2732032220516162 -0.7795048797287085 -0.7518543063015077 0.0
C C -0.20811216157088824 -0.5224853588758911 -0.9213669717033793 0.0
C C -0.328548440780451 -0.41197020853516025 -0.928115607983155 0.0
C C -0.3391895565583019 -0.5522709393880778 -0.7794556626915204 0.0
C C -0.2756666965556068 -0.9011546951226971 -0.8354141672984331 0.0
C C -0.1062046523022081 -0.5342531156083861 -0.7545807597622209 0.0
H H -0.1306535523022081 -0.47122311560838603 -0.7787989597622209 0.0
C C -0.07891604851657105 -0.4835715208542952 -0.6858955879948492 0.0
H H -0.07700484851657105 -0.3847415208542953 -0.6765536879948493 0.0
C C -0.03753868935311544 -0.5901668918396228 -0.6756718188912515 0.0
C C -0.03904112426556406 -0.7399832977493689 -0.6652572027051904 0.0
H H -0.015809924265564067 -0.8061532977493688 -0.6406372027051903 0.0
C C -0.07523596398039932 -0.8020897250616872 -0.7477801144314731 0.0
H H -0.0779447639803993 -0.9000597250616875 -0.759360114431473 0.0
C C 0.07211092673489145 -0.35433162956068615 -0.5698895473227922 0.0
H H 0.0824998267348915 -0.25910162956068605 -0.5726676473227922 0.0
C C 0.024948446342482156 -0.4207256622240975 -0.6023459885956028 0.0
H H 0.007577246342482155 -0.3560956622240976 -0.6385259885956028 0.0
C C 0.02087867709854106 -0.5461702344370718 -0.606705736858071 0.0
C C 0.04728788281090414 -0.6264433710396633 -0.5511653638401979 0.0
H H 0.03724678281090414 -0.7214133710396633 -0.546233563840198 0.0
C C 0.08076463610183604 -0.5789909527086554 -0.4990364666092856 0.0
H H 0.09862353610183605 -0.6411609527086554 -0.46204466660928567 0.0
Zn Zn 0.6743289703526468 -0.27797158091838237 0.32926805654251623 0.0
Zn Zn 0.660302458566523 0.10114940052978824 0.5635286116376421 0.0
O O 0.7337651565581558 -0.17523772330496007 0.30402330502765074 0.0
O O 0.6783772003737124 -0.15347295095958569 0.4188226845707106 0.0
O O 0.7040442546912995 0.06705495954892281 0.4778779747919141 0.0
O O 0.8059730282838642 0.2409519898308912 0.398052852226834 0.0
O O 0.8784107682468308 0.05278227460579597 0.46957020181281445 0.0
O O 0.8179663661863038 0.04904420570774808 0.2543461549435047 0.0
O O 0.8664115679180042 -0.1379176215865008 0.23049206046318058 0.0
O O 0.8261530042786881 -0.4255650360794974 0.37989455862545907 0.0
O O 0.7299617775929598 -0.40452537346323686 0.4169431865574712 0.0
N N 0.6103547241189302 -0.22265013678367537 0.2841590948436501 0.0
N N 0.39874625641302913 0.03968755924617168 -0.0009907376848726091 0.0
C C 0.7408180856634705 -0.03447253164258923 0.3631826657343929 0.0
H H 0.7362790856634703 0.0530474683574108 0.3304812657343929 0.0
C C 0.7820059748437544 -0.013703208498182557 0.3931963273433108 0.0
H H 0.7823469748437544 -0.07077320849818251 0.4418949273433108 0.0
C C 0.8193367712581283 -0.13258351584331565 0.3486286126765028 0.0
H H 0.8480077712581283 -0.18535351584331564 0.37718721267650274 0.0
C C 0.7775865052891874 -0.24092973048008098 0.3107992658851447 0.0
H H 0.7806775052891873 -0.27450973048008104 0.2570478658851448 0.0
C C 0.7025082307912053 -0.057298208093301356 0.4232331864472227 0.0
C C 0.8258468151869275 0.09447210814329521 0.4248686188687019 0.0
C C 0.8394985877987672 -0.035621847629414886 0.26129437220719953 0.0
C C 0.7746258432094472 -0.37437892386002886 0.37413250343902216 0.0
C C 0.6134384352494852 0.011255312927645268 0.253203422661905 0.0
H H 0.637887335249485 0.07428531292764527 0.277421622661905 0.0
C C 0.5742953919233085 0.03170636569023239 0.1869289909550913 0.0
H H 0.5723841919233084 0.13053636569023236 0.17758709095509131 0.0
C C 0.5363424938435717 -0.05654368550074688 0.1610272721444185 0.0
C C 0.5239608009644101 -0.2169612730830132 0.16541871185803236 0.0
H H 0.5007296009644102 -0.2831312730830131 0.14079871185803236 0.0
C C 0.577019283621924 -0.31405869933059166 0.22674804758400066 0.0
H H 0.5797280836219241 -0.41202869933059166 0.23832804758400064 0.0
C C 0.42730377042771056 0.15221341224036392 0.04942333341038788 0.0
H H 0.4169148704277106 0.24744341224036398 0.05220143341038787 0.0
C C 0.46918661208888507 0.08240337299002917 0.10898485770263301 0.0
H H 0.48655781208888504 0.14703337299002914 0.145164857702633 0.0
C C 0.4689821511705717 -0.04361120086189283 0.08919314793059636 0.0
C C 0.4608348185922067 -0.1372934545885754 0.05938037787699071 0.0
H H 0.4708759185922066 -0.2322634545885754 0.054448577876990714 0.0
C C 0.4207311124382792 -0.07816919813026058 0.004202315160032141 0.0
H H 0.40287221243827925 -0.14033919813026052 -0.03278948483996786 0.0
Zn Zn 0.3211031249506587 -0.30384546735864587 -0.8399716687803813 0.0
Zn Zn 0.3335904874548223 0.1088367518629612 -1.038090189280982 0.0
O O 0.26552688033539906 -0.16368957190648015 -0.8114039450112126 0.0
O O 0.32070250601890504 -0.12230713291227885 -0.9313990765050653 0.0
O O 0.2913485840282741 0.09819553566216987 -0.9411422599931327 0.0
O O 0.1875098179472454 0.20597841199760789 -0.8944073136268273 0.0
O O 0.1317310270723766 0.07788288318283788 -0.9814864568325028 0.0
O O 0.18801794072628147 0.05385770992504427 -0.760331654966276 0.0
O O 0.1456819548942244 -0.10648494016727203 -0.7143080495832048 0.0
O O 0.18261346395118155 -0.4300864351093001 -0.8729220569974802 0.0
O O 0.25462096824057656 -0.3937765500919178 -0.9126850948252534 0.0
N N 0.38558557340303473 -0.17760332466462952 -0.7852169808727903 0.0
N N 0.6058673243798797 0.07798286663871608 -0.4954338986914629 0.0
C C 0.26054106982287006 -0.05923509750904707 -0.8500324836644414 0.0
H H 0.26508006982287 0.028284902490952966 -0.8173310836644414 0.0
C C 0.19982453511789444 -0.04560698867239354 -0.9080287635118146 0.0
H H 0.1994835351178945 -0.10267698867239348 -0.9567273635118144 0.0
C C 0.18250433435988495 -0.14780367473668207 -0.8214622121972409 0.0
H H 0.15383333435988494 -0.20057367473668206 -0.8500208121972409 0.0
C C 0.21226181467328903 -0.24668900548705353 -0.8156696507002767 0.0
H H 0.20917081467328905 -0.2802690054870536 -0.7619182507002766 0.0
C C 0.2999364219188612 -0.04344706968077454 -0.9045421167887597 0.0
C C 0.1784212651674183 0.13756582047668017 -0.9091059691499873 0.0
C C 0.1636101327499642 -0.051005068229838385 -0.7708001694324034 0.0
C C 0.21544244736475013 -0.3628403959465922 -0.8698786623053734 0.0
C C 0.3840603577514368 -0.07804064508102253 -0.7303401500791984 0.0
H H 0.3596114577514368 -0.015010645081022513 -0.7545583500791984 0.0
C C 0.4363843824278927 0.0021197958599205717 -0.7109490666652694 0.0
H H 0.4382955824278927 0.10094979585992055 -0.7016071666652693 0.0
C C 0.48267874890582174 -0.0983814890656694 -0.6388389195776176 0.0
C C 0.4675382588951376 -0.23082896737965136 -0.6854111392145953 0.0
H H 0.49076945889513757 -0.2969989673796513 -0.6607911392145952 0.0
C C 0.4188056245740579 -0.28726755601432274 -0.7050774644006079 0.0
H H 0.41609682457405794 -0.38523755601432275 -0.7166574644006078 0.0
C C 0.5784232105018311 0.14960720913411962 -0.559834705873557 0.0
H H 0.5888121105018312 0.24483720913411963 -0.562612805873557 0.0
C C 0.5240864531660653 0.11472046206271318 -0.5926128184841729 0.0
H H 0.5067152531660654 0.17935046206271318 -0.6287928184841729 0.0
C C 0.5104331986444988 -0.04495892824500129 -0.6054595330384582 0.0
C C 0.5382625865862937 -0.11495467960920885 -0.5420009895607838 0.0
H H 0.5282214865862936 -0.2099246796092088 -0.537069189560784 0.0
C C 0.5865190851947337 -0.09095913173603548 -0.4933178740902859 0.0
H H 0.6043779851947336 -0.15312913173603543 -0.456326074090286 0.0
