_cell_length_a 27.1013
_cell_length_b 9.27321
_cell_length_c 16.979215
_cell_angle_alpha 90.0
_cell_angle_beta 99.1565
_cell_angle_gamma 90.0
_symmetry_space_group_name_H-M         'P 1'
_symmetry_Int_Tables_number            1
loop_
_symmetry_equiv_pos_as_xyz
   'x, y, z'
                         
loop_
_atom_site_label
_atom_site_type_symbol
_atom_site_fract_x 
_atom_site_fract_y
_atom_site_fract_z
_atom_site_charge
Zn Zn -0.16905500451104535 0.8177789237088315 -0.3444921273273936 0.0
Zn Zn -0.16400366800833377 0.39138835798439686 -0.5484763941855422 0.0
O O -0.22992895210451497 0.6638563441121353 -0.2905164130820219 0.0
O O -0.1856131961968749 0.635499487251078 -0.4448876715205125 0.0
O O -0.20864376374282337 0.43828166638614 -0.462945316163997 0.0
O O -0.2886814739090117 0.28126691416672855 -0.3946842020158786 0.0
O O -0.3668025440808506 0.42675566658899833 -0.4838018895408484 0.0
O O -0.31100294429552927 0.4405476250295801 -0.23266961572548434 0.0
O O -0.363090891466804 0.5977897347804321 -0.23357038063416571 0.0
O O -0.3174938675515303 0.903155372971969 -0.3713933176767678 0.0
O O -0.23526388328479134 0.8729818536428983 -0.40629506312650293 0.0
N N -0.10750353609117184 0.7064417724997242 -0.26628284323899276 0.0
N N 0.09835340436159737 0.4649894446989674 0.0030376903141432978 0.0
C C -0.24407328486070318 0.537333397299638 -0.34688874573207046 0.0
H H -0.2395342848607032 0.449813397299638 -0.31418734573207047 0.0
C C -0.3079182580691957 0.5342986263201169 -0.39785632769565205 0.0
H H -0.3082592580691957 0.591368626320117 -0.446554927695652 0.0
C C -0.3193577680677039 0.6213298339714359 -0.3464185937584271 0.0
H H -0.34802876806770383 0.6740998339714359 -0.3749771937584271 0.0
C C -0.28215444846223703 0.7554371170710998 -0.3200608601140843 0.0
H H -0.28524544846223704 0.7890171170711 -0.2663094601140843 0.0
C C -0.2102864596090065 0.5347877454619354 -0.42114426940591954 0.0
C C -0.314101336923055 0.3888723972518186 -0.4137739315048717 0.0
C C -0.331192503144381 0.5636699540454068 -0.2577077663300155 0.0
C C -0.2831026285618478 0.862695486217258 -0.36171565517628257 0.0
C C -0.09535129981502687 0.567463499748062 -0.24693253576815344 0.0
H H -0.11980019981502686 0.504433499748062 -0.27115073576815346 0.0
C C -0.0761500967225652 0.49591217652813013 -0.18335238972623705 0.0
H H -0.07423889672256521 0.3970821765281301 -0.17401048972623706 0.0
C C -0.027968656142700478 0.5682279078575332 -0.1555045817668633 0.0
C C -0.04408938958697371 0.7105584174805754 -0.1455385858268413 0.0
H H -0.02085818958697372 0.7767284174805753 -0.12091858582684126 0.0
C C -0.08311448066666374 0.8006330694963187 -0.21969279685257045 0.0
H H -0.08582328066666374 0.8986030694963189 -0.23127279685257043 0.0
C C 0.07155662400421287 0.34386383341101034 -0.04585218739686578 0.0
H H 0.08194552400421287 0.2486338334110103 -0.04863028739686578 0.0
C C 0.024699767218583066 0.40187060721218354 -0.11652546962491499 0.0
H H 0.007328567218583063 0.3372406072121836 -0.15270546962491502 0.0
C C 0.013489597512661718 0.5172494731928586 -0.09605077855511072 0.0
C C 0.04678757081700999 0.62457609460212 -0.04676576137053568 0.0
H H 0.03674647081700999 0.71954609460212 -0.04183396137053569 0.0
C C 0.0876300400100142 0.5799375440846537 0.004329923082113398 0.0
H H 0.10548894001001421 0.6421075440846536 0.041321723082113404 0.0
Zn Zn 0.17571380723653976 0.7799678964429072 0.8427966950790579 0.0
Zn Zn 0.18121673846222744 0.37749323535997176 1.068828961893188 0.0
O O 0.22538816286407762 0.6544328123782739 0.8080638776259702 0.0
O O 0.18078042037033343 0.6379314268238437 0.9308014832194477 0.0
O O 0.2165942561302798 0.4115072745242198 0.9757192258483404 0.0
O O 0.29261244473927417 0.2862796740243552 0.9060828185528865 0.0
O O 0.3713626555013912 0.3719624973495289 0.9704417594583392 0.0
O O 0.32171897033773444 0.4448797745476735 0.749543609616576 0.0
O O 0.3846000833332151 0.6371262979578025 0.7528064615270932 0.0
O O 0.31546575511702535 0.9491129003879318 0.8755362838891172 0.0
O O 0.23897106791346923 0.8922573054680315 0.8804375729414352 0.0
N N 0.11377361946502691 0.7008041258326835 0.7593243081118701 0.0
N N -0.10230432481286192 0.4489206720797785 0.49772328068568117 0.0
C C 0.23997276659167288 0.5396589682541684 0.8556714241477483 0.0
H H 0.23543376659167284 0.4521389682541684 0.8229700241477483 0.0
C C 0.2991226383128772 0.5485488377791587 0.8965860300556392 0.0
H H 0.29946363831287726 0.6056188377791587 0.9452846300556392 0.0
C C 0.3196617642284056 0.6240229374932722 0.8295554781041321 0.0
H H 0.3483327642284056 0.6767929374932721 0.8581140781041321 0.0
C C 0.2858267135971871 0.7561176382356593 0.8306503806981795 0.0
H H 0.28891771359718715 0.7896976382356594 0.7768989806981793 0.0
C C 0.2180739347840117 0.5595334752958911 0.9202583586546139 0.0
C C 0.3167454340401861 0.41630522052910174 0.9149500727923022 0.0
C C 0.3472850275091351 0.5821873963922783 0.7870521879243653 0.0
C C 0.2732404038463698 0.8516999282814499 0.8576557207945642 0.0
C C 0.12139071832955915 0.571540398619856 0.756092717328728 0.0
H H 0.14583961832955913 0.5085103986198559 0.7803109173287279 0.0
C C 0.07121327006666828 0.5225840531506509 0.7314312651137223 0.0
H H 0.06930207006666828 0.4237540531506509 0.7220893651137223 0.0
C C 0.029897145681092724 0.607394241707339 0.6501611286192102 0.0
C C 0.025570310902918492 0.7437386462058101 0.6753624152376484 0.0
H H 0.002339110902918493 0.80990864620581 0.6507424152376483 0.0
C C 0.07532367101584196 0.7730720089270651 0.7596784376576284 0.0
H H 0.07803247101584196 0.8710420089270653 0.7712584376576284 0.0
C C -0.08397189877239272 0.33785039893344926 0.5647046607154501 0.0
H H -0.09436079877239273 0.2426203989334492 0.5674827607154501 0.0
C C -0.020831440459240225 0.3915593803024174 0.6091504911139302 0.0
H H -0.0034602404592402117 0.32692938030241736 0.6453304911139303 0.0
C C -0.017596793425629753 0.5714239352115354 0.5891833233771994 0.0
C C -0.047048947502632193 0.6335322210093408 0.5603067453399905 0.0
H H -0.037007847502632196 0.7285022210093408 0.5553749453399907 0.0
C C -0.08355671422791178 0.5178992818749986 0.5040067931544745 0.0
H H -0.10141561422791175 0.5800692818749985 0.4670149931544746 0.0
Zn Zn 0.3214458354293942 1.2771975964789006 -0.3482445854270718 0.0
Zn Zn 0.3204811634727113 0.874454607630558 -0.5552441338137685 0.0
O O 0.2666355446686276 1.178960064069455 -0.31019005752333595 0.0
O O 0.3241342769818634 1.1329502370285798 -0.406445289478164 0.0
O O 0.2893380127644857 0.9226623958486124 -0.4704280800563265 0.0
O O 0.18678424403362867 0.7973384740296747 -0.42187615774004683 0.0
O O 0.13677149306502456 0.8697857096443402 -0.4534992943338201 0.0
O O 0.17487144560549456 0.9177508410743247 -0.2580104055014928 0.0
O O 0.11583121923463775 1.1040044421917803 -0.2432910927282613 0.0
O O 0.19136880339831278 1.4401972320887164 -0.37600229054416245 0.0
O O 0.2526077111949942 1.38832674357798 -0.3912539924867201 0.0
N N 0.3878513530386739 1.2179669298536118 -0.26221003457412634 0.0
N N 0.6008704892300706 0.930793115547023 -0.01887675983786188 0.0
C C 0.2574343249913405 1.0418468457809966 -0.35530599053530937 0.0
H H 0.26197332499134046 0.9543268457809965 -0.3226045905353094 0.0
C C 0.20421459213691073 1.0240522232611946 -0.4068067674535293 0.0
H H 0.20387359213691075 1.0811222232611946 -0.45550536745352926 0.0
C C 0.17690932774949805 1.1266852361653374 -0.3312586352850589 0.0
H H 0.14823832774949805 1.1794552361653379 -0.3598172352850589 0.0
C C 0.22203220066907645 1.2167898002555435 -0.3130442433327226 0.0
H H 0.21894120066907638 1.2503698002555435 -0.2592928433327226 0.0
C C 0.2902964466856854 1.0190234688240063 -0.4278712362308043 0.0
C C 0.17020513079592553 0.897834272355449 -0.4311719143917677 0.0
C C 0.1661294787370764 1.0540563700245997 -0.2773094297230052 0.0
C C 0.2185347288115544 1.3725172023603176 -0.35658424080034146 0.0
C C 0.39050088783203335 1.0454646787974229 -0.2539677103786302 0.0
H H 0.3660519878320334 0.9824346787974229 -0.2781859103786302 0.0
C C 0.42725210061470975 1.0140405923975477 -0.20100666452857216 0.0
H H 0.4291633006147097 0.9152105923975479 -0.1916647645285722 0.0
C C 0.46075673849918025 1.0671659888994012 -0.15771451981738674 0.0
C C 0.4619034460864137 1.2259035600792916 -0.1899670123015456 0.0
H H 0.4851346460864136 1.2920735600792916 -0.16534701230154558 0.0
C C 0.4322802575178096 1.2919960152798202 -0.21233342891427395 0.0
H H 0.42957145751780956 1.3899660152798203 -0.22391342891427396 0.0
C C 0.5788637814458091 0.8751260788075046 -0.05341219971377041 0.0
H H 0.5892526814458091 0.7798960788075047 -0.05619029971377041 0.0
C C 0.5328086555075104 0.8558566252471627 -0.10927189312011504 0.0
H H 0.5154374555075105 0.7912266252471627 -0.14545189312011503 0.0
C C 0.5286175781391124 1.0087504762685058 -0.12337950414769791 0.0
C C 0.5382498160836613 1.1318663646261267 -0.06078422974039754 0.0
H H 0.5282087160836615 1.2268363646261267 -0.05585242974039754 0.0
C C 0.58796152667004 1.0727493218247506 -0.011466598925304576 0.0
H H 0.60582042667004 1.1349193218247504 0.025525201074695428 0.0
Zn Zn 0.6735042901498581 1.26837919594409 0.8549970939760119 0.0
Zn Zn 0.6669566743300214 0.9057649306956285 1.0387025423553928 0.0
O O 0.7389629556288642 1.1760928048777723 0.8084755321391563 0.0
O O 0.6699410468927953 1.1026489742671621 0.9366876544950712 0.0
O O 0.7015632051048688 0.9288306482213639 0.9558892045108698 0.0
O O 0.8065484629874331 0.7834477316690103 0.892922477167261 0.0
O O 0.8647381258801553 0.8855775305770023 0.959273814481009 0.0
O O 0.8296596574838361 0.9045643496735495 0.7641036403460196 0.0
O O 0.8723531636520642 1.1355167743750112 0.7401661149947109 0.0
O O 0.8079102490187989 1.4310278478829426 0.8483995863416881 0.0
O O 0.7303479468080647 1.418820456788822 0.8910101564780984 0.0
N N 0.6112310058833288 1.162302997445757 0.7650520076003552 0.0
N N 0.40371430572705697 0.9563860954274633 0.5050744540217933 0.0
C C 0.7410024520098987 1.0254535641399185 0.8659482155291977 0.0
H H 0.7364634520098987 0.9379335641399186 0.8332468155291977 0.0
C C 0.8062063038733481 1.0115726021609048 0.9084210694189662 0.0
H H 0.8065473038733479 1.0686426021609048 0.9571196694189661 0.0
C C 0.8207539148469075 1.143039475597691 0.8315993760590982 0.0
H H 0.8494249148469075 1.1958094755976911 0.860157976059098 0.0
C C 0.7813887651244841 1.2183057541676616 0.8055668330994848 0.0
H H 0.784479765124484 1.2518857541676616 0.7518154330994846 0.0
C C 0.7019803639803232 1.0451087253560496 0.9085409764063047 0.0
C C 0.8257518805160285 0.8933773302554255 0.9201631176044327 0.0
C C 0.8257116849832916 1.0663273874048789 0.7668911839478991 0.0
C C 0.774292210623493 1.3850483966000158 0.8726349885555257 0.0
C C 0.6104539516007351 1.0792996201112506 0.7520131949066675 0.0
H H 0.6349028516007351 1.0162696201112507 0.7762313949066676 0.0
C C 0.5720540778662926 1.0189389679618794 0.6812129065637572 0.0
H H 0.5701428778662925 0.9201089679618794 0.6718710065637573 0.0
C C 0.5350342631951306 1.0868552981861275 0.6479714186779565 0.0
C C 0.533888523347852 1.2237309866298753 0.703012550405492 0.0
H H 0.510657323347852 1.2899009866298754 0.678392550405492 0.0
C C 0.5644474751119138 1.288276567670722 0.7171844386228157 0.0
H H 0.5671562751119138 1.3862465676707223 0.7287644386228157 0.0
C C 0.4253334342271747 0.8198688256472542 0.595073502167713 0.0
H H 0.4149445342271747 0.7246388256472542 0.5978516021677132 0.0
C C 0.47319152662951747 0.9109474689735623 0.5910862891957585 0.0
H H 0.4905627266295174 0.8463174689735624 0.6272662891957584 0.0
C C 0.4861186338202082 1.0384866449056591 0.6022370961992124 0.0
C C 0.4507385163349208 1.111913782506257 0.5393742376400483 0.0
H H 0.46077961633492076 1.206883782506257 0.5344424376400485 0.0
C C 0.415180106035083 1.0707331043509123 0.4949880791438511 0.0
H H 0.39732120603508303 1.1329031043509121 0.4579962791438512 0.0
Zn Zn 0.16850953105950106 -0.7984218316557639 0.3503479638893332 0.0
Zn Zn 0.17196868491579634 -0.37993219969914144 0.5576981361214723 0.0
O O 0.2341988011663179 -0.6627650606402341 0.30711865725877846 0.0
O O 0.19471660009329594 -0.664897548896898 0.4415358062816252 0.0
O O 0.22129547406155187 -0.42369483697966204 0.4718266013443792 0.0
O O 0.2896462351806661 -0.2739716013548653 0.4027318554508821 0.0
O O 0.35750440528451843 -0.3863671828678316 0.4572687835722616 0.0
O O 0.3122125575203031 -0.3900745734496679 0.2538303804752336 0.0
O O 0.35551071417138275 -0.6222515920511389 0.23190947196463757 0.0
O O 0.318140705602752 -0.9490710007431734 0.3711259323747236 0.0
O O 0.24533438751213635 -0.8977883728576386 0.3878889709539972 0.0
N N 0.10653832333103094 -0.6714978602363689 0.2572614834554539 0.0
N N -0.10749662671735008 -0.42331150866355904 0.008353594339323351 0.0
C C 0.24534492160469817 -0.5195438738091284 0.3561388217351787 0.0
H H 0.24080592160469821 -0.43202387380912843 0.3234374217351787 0.0
C C 0.29678340563295985 -0.5030054466846493 0.3943619137343813 0.0
H H 0.2971244056329598 -0.5600754466846494 0.4430605137343813 0.0
C C 0.3131544536180618 -0.6505944884011438 0.32899661006564385 0.0
H H 0.34182545361806177 -0.7033644884011437 0.3575552100656438 0.0
C C 0.28339207689575713 -0.72555144492374 0.30816413706918877 0.0
H H 0.28648307689575714 -0.7591314449237402 0.25441273706918877 0.0
C C 0.21279741874398983 -0.5270329422609268 0.42315627901344993 0.0
C C 0.32362198811802323 -0.4015971061819638 0.4283968123871628 0.0
C C 0.3419037464952087 -0.5624289832283174 0.25699933379034334 0.0
C C 0.2705637919372251 -0.8656740062881336 0.3526454830646162 0.0
C C 0.12333502357568701 -0.5534158864240842 0.23828101942679428 0.0
H H 0.14778392357568704 -0.4903858864240842 0.26249921942679433 0.0
C C 0.049875847762056974 -0.5079572001104028 0.21920120579555336 0.0
H H 0.04796464776205697 -0.40912720011040266 0.20985930579555337 0.0
C C 0.02782504461926436 -0.5771906484025101 0.15258416103040248 0.0
C C 0.04440828370226237 -0.7351232446711785 0.19607616609530584 0.0
H H 0.021177083702262383 -0.8012932446711785 0.17145616609530584 0.0
C C 0.06007795988758243 -0.7867240482783423 0.22418912664958807 0.0
H H 0.06278675988758244 -0.8846940482783424 0.23576912664958805 0.0
C C -0.07657351619232734 -0.36264953158357294 0.0780253896267805 0.0
H H -0.08696241619232735 -0.26741953158357284 0.0808034896267805 0.0
C C -0.030394157013612873 -0.41736217203411047 0.11073110438202334 0.0
H H -0.013022957013612876 -0.35273217203411056 0.14691110438202337 0.0
C C -0.014047417392626072 -0.5645161722532007 0.09868706968219573 0.0
C C -0.04240437788789663 -0.6094119277975265 0.0384369807863929 0.0
H H -0.032363277887896634 -0.7043819277975266 0.03350518078639289 0.0
C C -0.0849681693021977 -0.5840946550537884 0.008220550743642467 0.0
H H -0.1028270693021977 -0.6462646550537885 -0.028771249256357535 0.0
Zn Zn -0.1807133355897608 -0.7982031919789339 -0.8466916466354965 0.0
Zn Zn -0.17193319878844873 -0.3887269621167751 -1.0591425644911454 0.0
O O -0.22619803126535984 -0.6602195479377257 -0.8095630097380031 0.0
O O -0.17170979379081214 -0.6481141314421366 -0.9192585659814079 0.0
O O -0.21822681099577104 -0.40061861742449567 -0.9686583735095914 0.0
O O -0.2926530503416377 -0.27322788305221646 -0.8867029110718176 0.0
O O -0.3588337464575919 -0.4041273285653491 -0.9499525114776869 0.0
O O -0.3357734074263175 -0.4079409324305859 -0.7625599576024399 0.0
O O -0.37919673562494915 -0.6042982390417556 -0.7466832269990679 0.0
O O -0.31856466384904175 -0.9569818168463159 -0.8823194399411852 0.0
O O -0.23890707633806668 -0.8949868072989077 -0.9046700470636809 0.0
N N -0.10755954301113045 -0.6915070444155671 -0.7814963554331961 0.0
N N 0.10139930647707456 -0.46631670220141774 -0.5172979495625518 0.0
C C -0.2363300923516116 -0.5403528446137014 -0.8570994828220408 0.0
H H -0.23179109235161158 -0.45283284461370127 -0.8243980828220409 0.0
C C -0.295327303539637 -0.5452262503776474 -0.9035490734143363 0.0
H H -0.295668303539637 -0.6022962503776474 -0.9522476734143364 0.0
C C -0.31641443641409317 -0.6513611424049173 -0.8334264670465723 0.0
H H -0.34508543641409317 -0.7041311424049173 -0.8619850670465723 0.0
C C -0.27981913632168987 -0.7383643782521111 -0.8149401952419512 0.0
H H -0.2829101363216899 -0.7719443782521113 -0.7611887952419509 0.0
C C -0.20743069326328034 -0.5084700119207086 -0.916880063702676 0.0
C C -0.3157310990223569 -0.43395206661266733 -0.9032928678117272 0.0
C C -0.3336026171521402 -0.5677589096623338 -0.7632025117706748 0.0
C C -0.2854277324898035 -0.872597752744399 -0.8628427352977106 0.0
C C -0.10092852425524214 -0.5211075788896011 -0.7553875391154109 0.0
H H -0.12537742425524212 -0.45807757888960116 -0.779605739115411 0.0
C C -0.06414398038629372 -0.4908860449437247 -0.7171798878411267 0.0
H H -0.06223278038629372 -0.39205604494372476 -0.7078379878411267 0.0
C C -0.03169433686052012 -0.5448472795526412 -0.6548014026835353 0.0
C C -0.0327932842311806 -0.7304652865375934 -0.6804099528447246 0.0
H H -0.009562084231180604 -0.7966352865375933 -0.6557899528447245 0.0
C C -0.07094097926621676 -0.771185222635305 -0.7134574039188655 0.0
H H -0.07364977926621676 -0.8691552226353051 -0.7250374039188654 0.0
C C 0.07013520716529423 -0.3554118515181005 -0.5500260233395943 0.0
H H 0.08052410716529423 -0.26018185151810047 -0.5528041233395943 0.0
C C 0.028505915716298683 -0.38294804287029616 -0.6082396375773097 0.0
H H 0.011134715716298685 -0.31831804287029614 -0.6444196375773098 0.0
C C 0.0038080699273102705 -0.5206385501619386 -0.6031507152587189 0.0
C C 0.0399720545348596 -0.6097533786254966 -0.5500296057693498 0.0
H H 0.029930954534859604 -0.7047233786254966 -0.54509780576935 0.0
C C 0.09679722802645928 -0.568263276959408 -0.5066505654458996 0.0
H H 0.11465612802645928 -0.6304332769594081 -0.46965876544589963 0.0
Zn Zn 0.6663084616030256 -0.31223442885562114 0.34663076227926665 0.0
Zn Zn 0.6700456254849111 0.1384133862841619 0.5409769470104239 0.0
O O 0.7325765329502136 -0.15517391464926475 0.31067428302592376 0.0
O O 0.67172802648155 -0.10437705939349523 0.4114981411725532 0.0
O O 0.7159532293214018 0.09502584819389898 0.496780633102256 0.0
O O 0.7910338792693696 0.2132243577133003 0.411839766354728 0.0
O O 0.8516064536438629 0.09654775459905589 0.46334695118073205 0.0
O O 0.824790673202234 0.06105604519473294 0.26497430787971943 0.0
O O 0.8663060166855053 -0.1078266315126598 0.23427775993034142 0.0
O O 0.8158958818752327 -0.42025302477742627 0.36547980638627875 0.0
O O 0.7398481930639076 -0.3875756936729738 0.3820967847444455 0.0
N N 0.6163499951136592 -0.23736014461553112 0.2675240056582324 0.0
N N 0.3991034882618003 0.060462172418579346 -0.0030883672681871026 0.0
C C 0.7401562726481817 -0.027721760097161836 0.34938624539152985 0.0
H H 0.7356172726481818 0.059798239902838196 0.31668484539152986 0.0
C C 0.7938164526202142 -0.048351024211024135 0.3957619342404253 0.0
H H 0.794157452620214 -0.1054210242110241 0.44446053424042525 0.0
C C 0.8204486158469408 -0.12175531035941563 0.321919570189731 0.0
H H 0.8491196158469408 -0.1745253103594156 0.35047817018973093 0.0
C C 0.7786274323313996 -0.23664129416740567 0.307611420255288 0.0
H H 0.7817184323313996 -0.27022129416740576 0.25386002025528803 0.0
C C 0.7018503943649431 -0.008321123275391654 0.4224570079364635 0.0
C C 0.8276224442153054 0.07825287221817784 0.4302214016612465 0.0
C C 0.8230424846928477 -0.035818899202217 0.243579385137028 0.0
C C 0.7689090307178534 -0.3751787127141865 0.3843425101900542 0.0
C C 0.6053989104281325 -0.047838716255222624 0.25185952043590787 0.0
H H 0.6298478104281325 0.01519128374477739 0.2760777204359079 0.0
C C 0.5683373518579575 -0.0009597381275215717 0.17939105435254385 0.0
H H 0.5664261518579574 0.0978702618724784 0.17004915435254386 0.0
C C 0.52439705402471 -0.11605117249308206 0.15250269945683254 0.0
C C 0.5393966708417941 -0.2551178204669227 0.16048463805505467 0.0
H H 0.5161654708417941 -0.32128782046692267 0.13586463805505467 0.0
C C 0.5709714024545556 -0.26165721192679264 0.24381042459538307 0.0
H H 0.5736802024545556 -0.35962721192679264 0.2553904245953831 0.0
C C 0.43028312770658095 0.11958556317210892 0.059235429551860064 0.0
H H 0.4198942277065809 0.21481556317210898 0.06201352955186005 0.0
C C 0.4679165353264502 0.132978330028623 0.10961185232014099 0.0
H H 0.4852877353264502 0.197608330028623 0.145791852320141 0.0
C C 0.4853105093838608 -0.035828449488841736 0.10333443081257485 0.0
C C 0.4664730556306089 -0.14166331149048164 0.07842079349780674 0.0
H H 0.4765141556306089 -0.23663331149048167 0.07348899349780674 0.0
C C 0.4175895497668899 -0.10476193103491321 -0.005438240364066078 0.0
H H 0.39973064976688993 -0.16693193103491313 -0.042430040364066085 0.0
Zn Zn 0.3241704959995552 -0.28980996828219124 -0.8417462455978058 0.0
Zn Zn 0.3249733289301848 0.11717276403993235 -1.0624320847032174 0.0
O O 0.259522827023046 -0.16296007715182695 -0.8101578807580992 0.0
O O 0.3271974734184928 -0.13309688475091877 -0.9134075129897133 0.0
O O 0.28053278916222524 0.07597429077126569 -0.9578874439572925 0.0
O O 0.20991962565576508 0.21036647028280075 -0.9022573959904415 0.0
O O 0.1329155073707181 0.05892596781186144 -0.9308318191667961 0.0
O O 0.1876254349790801 0.0418765294746701 -0.752521577530979 0.0
O O 0.1292022722338255 -0.10023625173833726 -0.7410666828010366 0.0
O O 0.1720700508201514 -0.44331362449767664 -0.8700246464802411 0.0
O O 0.25478094343901797 -0.37734173313294883 -0.8991419274034742 0.0
N N 0.3958598711069641 -0.1734789517413459 -0.7731232786932559 0.0
N N 0.5940498518209714 0.08209130785262314 -0.48718001392315724 0.0
C C 0.25663551719093847 -0.03631304348723725 -0.8560912018403707 0.0
H H 0.2611745171909384 0.05120695651276278 -0.8233898018403707 0.0
C C 0.20121098284208866 -0.05064499148490878 -0.8972265079187084 0.0
H H 0.20086998284208865 -0.10771499148490873 -0.9459251079187084 0.0
C C 0.1873318432906793 -0.14071960681181692 -0.8166735057581185 0.0
H H 0.15866084329067934 -0.1934896068118169 -0.8452321057581185 0.0
C C 0.21785798704021547 -0.22952543277668513 -0.7923876456595564 0.0
H H 0.21476698704021543 -0.2631054327766852 -0.7386362456595562 0.0
C C 0.3002776820891431 -0.0357906346986053 -0.9202751988383652 0.0
C C 0.1708833819266567 0.11492405384833149 -0.9247013403470865 0.0
C C 0.15760474746359965 -0.08345956549302573 -0.7755011697965681 0.0
C C 0.21959201315968668 -0.34492595353401456 -0.8680440548674092 0.0
C C 0.39458291210753776 -0.07295996129252093 -0.739928866542943 0.0
H H 0.37013401210753777 -0.009929961292520904 -0.764147066542943 0.0
C C 0.4278249373472597 -0.0004846939785580711 -0.6934301343611703 0.0
H H 0.42973613734725974 0.0983453060214419 -0.6840882343611704 0.0
C C 0.4718283721607856 -0.0843875221380694 -0.671086881707578 0.0
C C 0.4636741767892695 -0.24452032988249497 -0.6905538406124354 0.0
H H 0.4869053767892695 -0.3106903298824949 -0.6659338406124353 0.0
C C 0.4136689130234753 -0.266347252440333 -0.7589965136950518 0.0
H H 0.41096011302347535 -0.36431725244033303 -0.7705765136950518 0.0
C C 0.5626190709564356 0.16934481587658304 -0.5698519048239027 0.0
H H 0.5730079709564356 0.264574815876583 -0.5726300048239028 0.0
C C 0.5348177454675211 0.1467102528405852 -0.6317531699896611 0.0
H H 0.5174465454675212 0.2113402528405852 -0.6679331699896611 0.0
C C 0.5118407036261201 -0.046210189172380525 -0.6016919136140033 0.0
C C 0.5431067020873018 -0.14377836945158756 -0.5387185090125863 0.0
H H 0.5330656020873019 -0.23874836945158756 -0.5337867090125865 0.0
C C 0.5777742207877999 -0.04452427320287425 -0.49880620085451655 0.0
H H 0.5956331207877998 -0.1066942732028742 -0.46181440085451664 0.0
