_cell_length_a 27.1013
_cell_length_b 9.27321
_cell_length_c 16.979215
_cell_angle_alpha 90.0
_cell_angle_beta 99.1565
_cell_angle_gamma 90.0
_symmetry_space_group_name_H-M         'P 1'
_symmetry_Int_Tables_number            1
loop_
_symmetry_equiv_pos_as_xyz
   'x, y, z'
                         
loop_
_atom_site_label
_atom_site_type_symbol
_atom_site_fract_x 
_atom_site_fract_y
_atom_site_fract_z
_atom_site_charge
Zn Zn -0.17353403041964496 0.7989433862804269 -0.31265139188923624 0.0
Zn Zn -0.16600870235000403 0.39910302666973246 -0.5517051303481018 0.0
O O -0.2373654962522387 0.6778368919069904 -0.31133692220632797 0.0
O O -0.18382101026335113 0.6267594537332228 -0.4278642261616655 0.0
O O -0.2046120892056948 0.43797759177808554 -0.4556565428329202 0.0
O O -0.3032082846228209 0.27604382070814604 -0.4002423400983259 0.0
O O -0.37366357647369997 0.4042429839160558 -0.46402058570725274 0.0
O O -0.3193783156771918 0.432295211373806 -0.24712400654283248 0.0
O O -0.3601579285387036 0.6134958325670308 -0.21707687333965583 0.0
O O -0.321419726351148 0.9433819973200189 -0.37771596342357244 0.0
O O -0.24146839775049972 0.9170492044554054 -0.4007423685900875 0.0
N N -0.11913807358810989 0.7235969985357936 -0.2851431563127189 0.0
N N 0.10647389110119375 0.43397739547112285 0.00851635088999713 0.0
C C -0.24163749573871682 0.5360978224036276 -0.35292086403344763 0.0
H H -0.23709849573871683 0.44857782240362765 -0.32021946403344764 0.0
C C -0.29116815191579337 0.5286210803962554 -0.3862650897261161 0.0
H H -0.2915091519157933 0.5856910803962556 -0.4349636897261161 0.0
C C -0.3206372240252148 0.6552465941126319 -0.33837802944315265 0.0
H H -0.3493082240252147 0.7080165941126317 -0.36693662944315264 0.0
C C -0.2869577394596709 0.7184940107961743 -0.29631819147939154 0.0
H H -0.2900487394596709 0.7520740107961743 -0.24256679147939156 0.0
C C -0.20477699780671732 0.5452728008570726 -0.4133609643498294 0.0
C C -0.32659184427196675 0.4276015786054216 -0.43919613351752623 0.0
C C -0.3303738045867255 0.5668628885893264 -0.27763322187332795 0.0
C C -0.2738144748164555 0.8836076011746745 -0.3559145492353907 0.0
C C -0.10168314840712102 0.5314867828183593 -0.2581685587281097 0.0
H H -0.126132048407121 0.4684567828183593 -0.2823867587281097 0.0
C C -0.07274845347095701 0.5022349249467206 -0.19711248330969755 0.0
H H -0.070837253470957 0.4034049249467205 -0.1877705833096976 0.0
C C -0.030041408937035535 0.5973807921643494 -0.16059548224351886 0.0
C C -0.029987397390020726 0.7344280340377027 -0.1754298406655225 0.0
H H -0.006756197390020733 0.8005980340377027 -0.1508098406655225 0.0
C C -0.07310514144144042 0.8153910275903749 -0.23790038586025317 0.0
H H -0.07581394144144042 0.913361027590375 -0.2494803858602532 0.0
C C 0.06421062756120044 0.36352568600783647 -0.03599075505696959 0.0
H H 0.07459952756120045 0.2682956860078364 -0.03876885505696957 0.0
C C 0.024566616060344628 0.40791437235631633 -0.12190301903048363 0.0
H H 0.00719541606034463 0.34328437235631637 -0.15808301903048366 0.0
C C 0.013629014219948095 0.5578045867019326 -0.09962988674039362 0.0
C C 0.045709875894620666 0.6210064015726552 -0.05819578713883857 0.0
H H 0.03566877589462067 0.7159764015726552 -0.05326398713883858 0.0
C C 0.07864771378118883 0.5625186866721854 -0.02007801888934242 0.0
H H 0.09650661378118884 0.6246886866721854 0.016913781110657583 0.0
Zn Zn 0.1763923600326201 0.8095645523621829 0.842802294311547 0.0
Zn Zn 0.17270476074352537 0.37934911972066004 1.038245575708105 0.0
O O 0.23964596947518588 0.6610933040697484 0.8086926899899554 0.0
O O 0.17491505000890878 0.6375892679833431 0.926754346166797 0.0
O O 0.19274917322424803 0.44064570453640206 0.931682836726453 0.0
O O 0.2851937993769656 0.3229242222059901 0.8962433742054504 0.0
O O 0.3568477444675278 0.43813693237611306 0.9720647931680475 0.0
O O 0.32522850760739097 0.4194408946821999 0.7497647227599461 0.0
O O 0.35077785980823556 0.6264749911127432 0.736345375665134 0.0
O O 0.3195744399362707 0.9513598574687063 0.8820997660267915 0.0
O O 0.24666032266542032 0.8980637309135612 0.9037920864737291 0.0
N N 0.10738258516782233 0.7028595271852124 0.7632316486364072 0.0
N N -0.09990707599661292 0.4653193759473138 0.49212993907612435 0.0
C C 0.2454794132129981 0.5103920491225877 0.867536381765889 0.0
H H 0.24094041321299808 0.4228720491225877 0.834834981765889 0.0
C C 0.29550040563528296 0.5439584836534385 0.8973344990973878 0.0
H H 0.29584140563528294 0.6010284836534384 0.9460330990973879 0.0
C C 0.3198936967562305 0.6341942829099508 0.8369124365455839 0.0
H H 0.34856469675623053 0.6869642829099508 0.8654710365455839 0.0
C C 0.27633251004034154 0.744083370255263 0.816168684221214 0.0
H H 0.27942351004034155 0.7776633702552632 0.7624172842212139 0.0
C C 0.19862465829968068 0.5262361199216057 0.9214518092280307 0.0
C C 0.32117291113047935 0.3785558345127152 0.9201274614092215 0.0
C C 0.3354164301212282 0.553406955285201 0.7742859600867255 0.0
C C 0.2758357089438569 0.8600350013221678 0.8672188358131749 0.0
C C 0.10258829140986388 0.5756664141518375 0.7491821319610292 0.0
H H 0.12703719140986386 0.5126364141518375 0.7734003319610293 0.0
C C 0.06673537099276139 0.4927082944042057 0.6967566029217754 0.0
H H 0.0648241709927614 0.39387829440420563 0.6874147029217755 0.0
C C 0.020043686098700466 0.5898066892128054 0.6477670459799648 0.0
C C 0.040993680450247004 0.75936477434425 0.672857172066654 0.0
H H 0.01776248045024701 0.8255347743442499 0.6482371720666539 0.0
C C 0.07925004487947464 0.7785635567190533 0.7063129404839131 0.0
H H 0.08195884487947462 0.8765335567190534 0.7178929404839131 0.0
C C -0.07028112006057287 0.37339285002964195 0.5487448398138364 0.0
H H -0.08067002006057288 0.27816285002964186 0.5515229398138364 0.0
C C -0.020160612798147425 0.40694774520008875 0.5901286292348911 0.0
H H -0.002789412798147425 0.34231774520008884 0.6263086292348911 0.0
C C -0.011728669585051732 0.5384813155639023 0.6081839136629784 0.0
C C -0.0490200611020673 0.6466704153344771 0.551289065329076 0.0
H H -0.03897896110206731 0.7416404153344771 0.546357265329076 0.0
C C -0.0929201157565745 0.5686806879790447 0.5076147975983708 0.0
H H -0.1107790157565745 0.6308506879790448 0.4706229975983709 0.0
Zn Zn 0.33609374515785284 1.2831342085881805 -0.3288791260027111 0.0
Zn Zn 0.3275619206291889 0.9089932121690185 -0.5409520063816636 0.0
O O 0.2698975078577179 1.1644031654009037 -0.3058098890915882 0.0
O O 0.3135247821691568 1.14291890373991 -0.4273704070823885 0.0
O O 0.29116074473415854 0.9081207142248114 -0.471179427569209 0.0
O O 0.2038681587107377 0.7969854215795572 -0.4107114863805088 0.0
O O 0.13615364124827073 0.9026264062738659 -0.48583805565903965 0.0
O O 0.18032472741003458 0.9397927444184124 -0.25107398868388964 0.0
O O 0.1253978171474875 1.0962519325526006 -0.23791181614635273 0.0
O O 0.1837400100041819 1.444096720750151 -0.397784927940389 0.0
O O 0.2504309631934169 1.3494240592823155 -0.4245157570275243 0.0
N N 0.3926365706424545 1.1754681337094863 -0.2623167074470661 0.0
N N 0.6020874885695588 0.8820790540449701 -0.021022096622866082 0.0
C C 0.25107357180716333 1.0395467907342846 -0.3567516082666463 0.0
H H 0.2556125718071633 0.9520267907342843 -0.3240502082666463 0.0
C C 0.21147579063537925 1.0372486026642498 -0.37662978938123065 0.0
H H 0.2111347906353793 1.0943186026642497 -0.4253283893812307 0.0
C C 0.16974072886605443 1.1270204061306857 -0.34457496904229823 0.0
H H 0.14106972886605446 1.1797904061306859 -0.3731335690422982 0.0
C C 0.22459619998809485 1.2267976555130011 -0.30797960895267357 0.0
H H 0.22150519998809481 1.2603776555130013 -0.25422820895267356 0.0
C C 0.29216152630988745 1.0436156538037842 -0.4096617187698846 0.0
C C 0.17620549547244257 0.8977431136758832 -0.4092322736926345 0.0
C C 0.16226532294200494 1.0884482652112182 -0.24896233150205027 0.0
C C 0.21615848002373067 1.3881910101916883 -0.36003068852686704 0.0
C C 0.38524551697743264 1.0562092770533824 -0.25716869210358073 0.0
H H 0.3607966169774327 0.9931792770533824 -0.2813868921035807 0.0
C C 0.43923967635821404 1.001779783566766 -0.2006825465738386 0.0
H H 0.44115087635821404 0.9029497835667659 -0.19134064657383865 0.0
C C 0.4717574628594604 1.1039030392067875 -0.16263680821016374 0.0
C C 0.46727551405886547 1.2394454615489272 -0.17531189401828298 0.0
H H 0.4905067140588654 1.305615461548927 -0.15069189401828298 0.0
C C 0.4223796079742959 1.3063968163599695 -0.2083279001807021 0.0
H H 0.4196708079742959 1.4043668163599696 -0.21990790018070208 0.0
C C 0.5700350193754068 0.8485979023280938 -0.046526705901172485 0.0
H H 0.5804239193754069 0.7533679023280938 -0.04930480590117248 0.0
C C 0.5310857455046927 0.8741664398963966 -0.10459937488038483 0.0
H H 0.5137145455046928 0.8095364398963967 -0.14077937488038483 0.0
C C 0.5126498489354496 1.0519867078100795 -0.11049916849236212 0.0
C C 0.5387808899811178 1.0915525721613244 -0.07413759621180646 0.0
H H 0.528739789981118 1.1865225721613244 -0.06920579621180648 0.0
C C 0.5820044806617782 1.0697744315348796 -0.003922798277177018 0.0
H H 0.5998633806617781 1.1319444315348794 0.03306900172282298 0.0
Zn Zn 0.6783949237649327 1.316959416492537 0.8379195764859174 0.0
Zn Zn 0.6704687581473673 0.892716543973817 1.0425036242592336 0.0
O O 0.7311148168954619 1.1291211978442042 0.8218247829053517 0.0
O O 0.6794148538389332 1.1284174758151844 0.9172350634102723 0.0
O O 0.7120962261191582 0.8903253641625266 0.9703489928046052 0.0
O O 0.7994251768703744 0.8056567094329374 0.8850635575772285 0.0
O O 0.8608928099150563 0.8624765277720032 0.9585038762408634 0.0
O O 0.8300551403177255 0.9328964740956078 0.7528965000832365 0.0
O O 0.8773827235126231 1.1332447643744883 0.7211453990623428 0.0
O O 0.8147036942929581 1.4238983101340708 0.8748088663723318 0.0
O O 0.7416797405006201 1.3822981205051077 0.8887323328605725 0.0
N N 0.6063238658826879 1.1838223187843357 0.7736823832422318 0.0
N N 0.4003270522262386 0.9167944479726883 0.507934979786134 0.0
C C 0.743401189875948 1.0194451649958307 0.8514138045175679 0.0
H H 0.7388621898759481 0.9319251649958303 0.8187124045175679 0.0
C C 0.7941289426290262 1.027540534004083 0.9058025976445359 0.0
H H 0.794469942629026 1.084610534004083 0.9545011976445357 0.0
C C 0.8322220871608675 1.1305216210859177 0.8502213630986336 0.0
H H 0.8608930871608675 1.1832916210859177 0.8787799630986336 0.0
C C 0.7718706128457342 1.2596900237911732 0.8120858908667746 0.0
H H 0.7749616128457342 1.2932700237911732 0.7583344908667744 0.0
C C 0.7064536071284412 1.0326411437871317 0.917459690064569 0.0
C C 0.8278439364462343 0.9128854620425225 0.9146362629971281 0.0
C C 0.8335017450567994 1.0624750795339204 0.7686506949045164 0.0
C C 0.7724314510066806 1.3906450443976848 0.8535034915508436 0.0
C C 0.6039081823765259 1.020024885238502 0.7438593319688853 0.0
H H 0.6283570823765259 0.9569948852385021 0.7680775319688853 0.0
C C 0.5612466387877798 0.9992257987857441 0.6806270012500208 0.0
H H 0.5593354387877797 0.9003957987857443 0.6712851012500209 0.0
C C 0.5297951328858117 1.0743324172927782 0.6734043818854586 0.0
C C 0.5287118756444767 1.2498163560265636 0.716522075785189 0.0
H H 0.5054806756444767 1.3159863560265637 0.6919020757851889 0.0
C C 0.5600519379093575 1.2833627279105826 0.710784776431229 0.0
H H 0.5627607379093574 1.381332727910583 0.7223647764312289 0.0
C C 0.4314661243435461 0.8619105360738739 0.5685280581647281 0.0
H H 0.4210772243435461 0.766680536073874 0.5713061581647281 0.0
C C 0.4857952751057693 0.9220312732526049 0.6130712147159199 0.0
H H 0.5031664751057693 0.857401273252605 0.6492512147159198 0.0
C C 0.48916661584269916 1.022684083209162 0.6001279241562744 0.0
C C 0.45842628175965966 1.1234704781601708 0.5458602271396116 0.0
H H 0.46846738175965963 1.2184404781601708 0.5409284271396116 0.0
C C 0.41294519849735334 1.0827175197511751 0.5041447464082299 0.0
H H 0.3950862984973534 1.144887519751175 0.46715294640822996 0.0
Zn Zn 0.16839208589831714 -0.8079524966651588 0.32820209980302145 0.0
Zn Zn 0.16261215377130836 -0.39549098506636365 0.5308580713969999 0.0
O O 0.2346148299496869 -0.6860866689437873 0.3065765511720887 0.0
O O 0.18266496940590063 -0.6187375079601612 0.42884492979462663 0.0
O O 0.19505992506465863 -0.41014934064749353 0.4470511621503541 0.0
O O 0.30938158520868925 -0.27762145290384244 0.3870020108808719 0.0
O O 0.360373376292125 -0.37436743208725276 0.456692558797615 0.0
O O 0.32152001156155213 -0.44749325975580134 0.24897076132775242 0.0
O O 0.37018725089959326 -0.6495708238394309 0.22983240832039206 0.0
O O 0.31966004994887026 -0.9499764253799927 0.35885803079125045 0.0
O O 0.23307434499611032 -0.9490469346618468 0.38866899115365017 0.0
N N 0.10484709274970366 -0.706858939340613 0.2599421518835787 0.0
N N -0.10583991603261332 -0.45049555630480925 0.0010851985556659745 0.0
C C 0.24076121474849638 -0.5351834717915755 0.365577559812871 0.0
H H 0.2362222147484964 -0.44766347179157556 0.332876159812871 0.0
C C 0.2996281473071869 -0.5361829127173412 0.4083022113756158 0.0
H H 0.2999691473071868 -0.5932529127173413 0.45700081137561577 0.0
C C 0.3205545587085538 -0.6579240926261143 0.3473491393440437 0.0
H H 0.3492255587085539 -0.7106940926261143 0.3759077393440437 0.0
C C 0.2702631954608951 -0.7547746601223326 0.30529176257427704 0.0
H H 0.2733541954608951 -0.7883546601223328 0.2515403625742771 0.0
C C 0.2104154159804984 -0.5161617995487753 0.4127513217564493 0.0
C C 0.3340503556317138 -0.4214436746209075 0.42735220280724084 0.0
C C 0.34499564784717723 -0.5845209609738014 0.2840709420937302 0.0
C C 0.2958300032789337 -0.9119990077290883 0.37142302468905747 0.0
C C 0.10108476844132556 -0.5434093130275127 0.2528677956715568 0.0
H H 0.12553366844132555 -0.4803793130275127 0.27708599567155684 0.0
C C 0.07145747274692613 -0.4744064649534026 0.20037632948163728 0.0
H H 0.06954627274692612 -0.3755764649534026 0.19103442948163732 0.0
C C 0.03507944483441616 -0.5826599049138107 0.15426448109304997 0.0
C C 0.03699948767986634 -0.7643488933621329 0.17939254132696014 0.0
H H 0.013768287679866346 -0.8305188933621328 0.15477254132696014 0.0
C C 0.07652976028659268 -0.7604963013091277 0.21543183187863288 0.0
H H 0.0792385602865927 -0.8584663013091278 0.22701183187863289 0.0
C C -0.07697692749953464 -0.34868954584845746 0.033447570158451866 0.0
H H -0.08736582749953464 -0.2534595458484574 0.036225670158451864 0.0
C C -0.0329694248701633 -0.3884395624362845 0.07622649453226427 0.0
H H -0.015598224870163307 -0.3238095624362846 0.11240649453226428 0.0
C C -0.01355908147413286 -0.5283675210615704 0.10703851924863814 0.0
C C -0.04081978161050704 -0.6191052236200463 0.038073969016002976 0.0
H H -0.030778681610507046 -0.7140752236200463 0.03314216901600298 0.0
C C -0.08608761168571405 -0.5861633310987374 0.0110466810969205 0.0
H H -0.10394651168571407 -0.6483333310987374 -0.025945118903079503 0.0
Zn Zn -0.16720130904267116 -0.8029489599452388 -0.8490974732244219 0.0
Zn Zn -0.1718683922514528 -0.4159344414915403 -1.046662522989785 0.0
O O -0.2344184451284347 -0.6496873499283812 -0.8099649911652449 0.0
O O -0.16660802091124757 -0.6399561010541215 -0.9024174473283262 0.0
O O -0.2047698863710978 -0.40103319315689356 -0.9546445226281273 0.0
O O -0.3169180083155776 -0.28377912371628444 -0.9016846931234399 0.0
O O -0.37527086516094527 -0.4120208217924275 -0.9529987715057043 0.0
O O -0.32484647836491765 -0.4073193791355847 -0.7513545213931141 0.0
O O -0.38009119042086736 -0.6591905634704615 -0.7405493522053941 0.0
O O -0.3182548190623698 -0.9164827572673593 -0.8678252540608452 0.0
O O -0.24206078393517771 -0.8991785681222509 -0.8920178262209261 0.0
N N -0.1104112549072375 -0.6553866889498571 -0.7647153624528975 0.0
N N 0.08658464209655072 -0.4567866173665847 -0.5104241514057187 0.0
C C -0.2432833598115897 -0.5448145966201904 -0.857900453690356 0.0
H H -0.23874435981158967 -0.4572945966201903 -0.825199053690356 0.0
C C -0.306565145329495 -0.5352259861937642 -0.9016593413794627 0.0
H H -0.306906145329495 -0.5922959861937641 -0.9503579413794627 0.0
C C -0.331807138582725 -0.651132120524008 -0.8299532523297201 0.0
H H -0.360478138582725 -0.703902120524008 -0.85851185232972 0.0
C C -0.27931440381303935 -0.7393448026246578 -0.8229422445578036 0.0
H H -0.2824054038130394 -0.772924802624658 -0.7691908445578035 0.0
C C -0.20039642151738252 -0.5346412389244691 -0.9218106762929389 0.0
C C -0.3160843229044697 -0.4124423442237432 -0.9173597404217907 0.0
C C -0.3328427680638596 -0.597691312484563 -0.7601288923489568 0.0
C C -0.2887494276750174 -0.8649105026009389 -0.8705340689924711 0.0
C C -0.116327414160179 -0.5644679477768072 -0.7490756284715333 0.0
H H -0.140776314160179 -0.5014379477768072 -0.7732938284715334 0.0
C C -0.055588325532192416 -0.4893611885586376 -0.6984466003481368 0.0
H H -0.05367712553219242 -0.3905311885586376 -0.6891047003481368 0.0
C C -0.021407464942686992 -0.5763089051645142 -0.6462078628546621 0.0
C C -0.045224191322099185 -0.7292046943851426 -0.6742881095721212 0.0
H H -0.021992991322099194 -0.7953746943851426 -0.6496681095721211 0.0
C C -0.0806726318032782 -0.79041862411247 -0.7174575151476537 0.0
H H -0.0833814318032782 -0.8883886241124701 -0.7290375151476537 0.0
C C 0.06124108714444125 -0.3490692250620421 -0.5464466101932905 0.0
H H 0.07162998714444126 -0.253839225062042 -0.5492247101932906 0.0
C C 0.03230649085739703 -0.3893637837701901 -0.6206643753480826 0.0
H H 0.014935290857397027 -0.3247337837701901 -0.6568443753480826 0.0
C C 0.023944974486153167 -0.5346212690616459 -0.5811757500035899 0.0
C C 0.038611208810760064 -0.6421744048921872 -0.5399966006578617 0.0
H H 0.028570108810760057 -0.7371444048921872 -0.5350648006578619 0.0
C C 0.08477369245490633 -0.5461814872688399 -0.5125817260085047 0.0
H H 0.10263259245490634 -0.6083514872688399 -0.4755899260085048 0.0
Zn Zn 0.6664707413749013 -0.33065121940193004 0.3472416450481202 0.0
Zn Zn 0.6711688744533216 0.11632931149708998 0.5586830221707029 0.0
O O 0.7340953973461041 -0.12329371953275053 0.30358075910298854 0.0
O O 0.6704919476558513 -0.13335753497599706 0.41122888707200783 0.0
O O 0.7045254538810694 0.07360106529283099 0.471185459545584 0.0
O O 0.7975146519620302 0.19003992230366754 0.4013570682711936 0.0
O O 0.8758845402013495 0.07038927833069625 0.4759896598165037 0.0
O O 0.8211060346679608 0.06482858056336485 0.2615397523520051 0.0
O O 0.867750812128648 -0.12819802348557444 0.22455955895736782 0.0
O O 0.8177404494337314 -0.4497652190461452 0.3735334702378878 0.0
O O 0.7462179968135711 -0.3626306177837382 0.4139293948110459 0.0
N N 0.6188054365605578 -0.18063653446176095 0.2579927238565949 0.0
N N 0.39544063880268043 0.07057672003229663 -0.0033591141401040302 0.0
C C 0.73806829515635 -0.04401319048713113 0.35395990048986803 0.0
H H 0.73352929515635 0.04350680951286891 0.32125850048986804 0.0
C C 0.7954685710688489 -0.042344125497324 0.39687293711696453 0.0
H H 0.7958095710688489 -0.09941412549732395 0.4455715371169645 0.0
C C 0.8175202169984618 -0.12614382026160154 0.33572471553776645 0.0
H H 0.8461912169984619 -0.17891382026160155 0.36428331553776644 0.0
C C 0.7827048279695469 -0.22662209940744757 0.3045278599094626 0.0
H H 0.7857958279695468 -0.26020209940744765 0.25077645990946257 0.0
C C 0.7108823205461616 -0.021601384924309946 0.4315292401560916 0.0
C C 0.8212273940913649 0.10161963489532282 0.4207187684096843 0.0
C C 0.8408511814500044 -0.05045596670378838 0.2916744892356106 0.0
C C 0.780246365323995 -0.38824662617086986 0.37256438821572513 0.0
C C 0.6101951650876564 -0.046173330069728034 0.25744796468056913 0.0
H H 0.6346440650876564 0.016856669930271982 0.28166616468056915 0.0
C C 0.5786682992492722 0.021223523120369 0.1957049255079862 0.0
H H 0.5767570992492721 0.12005352312036896 0.18636302550798625 0.0
C C 0.5298010693867446 -0.11617540503203792 0.1583881429008416 0.0
C C 0.5421150804515097 -0.23426199038096568 0.15809400320424458 0.0
H H 0.5188838804515098 -0.30043199038096563 0.13347400320424457 0.0
C C 0.5775464801724279 -0.29464962364359815 0.20396433445593476 0.0
H H 0.5802552801724281 -0.3926196236435982 0.21554433445593477 0.0
C C 0.41566538217927623 0.13311396814377102 0.0552540403596044 0.0
H H 0.4052764821792762 0.2283439681437711 0.0580321403596044 0.0
C C 0.47279931712625023 0.09536896311544676 0.13447910151867204 0.0
H H 0.4901705171262502 0.15999896311544673 0.17065910151867203 0.0
C C 0.48940603462163845 -0.05845970774543762 0.10642640118224693 0.0
C C 0.45178496597097484 -0.15175298560259248 0.035597097910042265 0.0
H H 0.4618260659709748 -0.24672298560259245 0.030665297910042265 0.0
C C 0.40893586961923056 -0.10190327867190101 0.00124469188388562 0.0
H H 0.3910769696192306 -0.16407327867190094 -0.03574710811611438 0.0
Zn Zn 0.3239800877540567 -0.2919639475140158 -0.8374164164619092 0.0
Zn Zn 0.32288857865612397 0.11983927915692387 -1.047940463427034 0.0
O O 0.27099001103068204 -0.15478000839556347 -0.8205524924530317 0.0
O O 0.31625987181097726 -0.12981853809972643 -0.9146447321598518 0.0
O O 0.28620893509560463 0.10797796826292201 -0.9718642955904061 0.0
O O 0.1923712025900273 0.23240485670822802 -0.9017484826657541 0.0
O O 0.14248973742590165 0.09378986197246754 -0.9667499345329678 0.0
O O 0.17915766411103076 0.06866087419896814 -0.7413680560831029 0.0
O O 0.12847628578273879 -0.11388375487142356 -0.7447361819796389 0.0
O O 0.18203285267323982 -0.41835592111833786 -0.8783828824727388 0.0
O O 0.2604113053144774 -0.3921200433087264 -0.8952300372083628 0.0
N N 0.38747973960352805 -0.2181919799542171 -0.7888082323279874 0.0
N N 0.5980429059727108 0.0662081568565659 -0.5010135817595044 0.0
C C 0.25144506480863305 -0.03966332191651542 -0.8715190349969001 0.0
H H 0.255984064808633 0.047856678083484615 -0.8388176349969001 0.0
C C 0.20609142103161393 -0.047574255464514714 -0.9055204012189656 0.0
H H 0.20575042103161392 -0.10464425546451467 -0.9542190012189656 0.0
C C 0.18248768167708282 -0.1280549814427329 -0.8575133205377586 0.0
H H 0.1538166816770828 -0.18082498144273287 -0.8860719205377585 0.0
C C 0.2151961085410064 -0.24680888226784142 -0.808241022017788 0.0
H H 0.21210510854100637 -0.2803888822678415 -0.7544896220177878 0.0
C C 0.29201257557972576 -0.013506457854355336 -0.9101712958448792 0.0
C C 0.17097811946990113 0.1070241009817187 -0.9222411776935747 0.0
C C 0.16706098910082398 -0.011819690458164113 -0.7717543826145364 0.0
C C 0.21918238708195092 -0.36674321154094985 -0.8661533981657749 0.0
C C 0.38665003385367075 -0.028136613347013357 -0.7419579693529234 0.0
H H 0.3622011338536707 0.03489338665298666 -0.7661761693529233 0.0
C C 0.41669817046091207 -0.025310230790886533 -0.703191467198947 0.0
H H 0.418609370460912 0.07351976920911343 -0.6938495671989471 0.0
C C 0.46307474340963395 -0.06390997000471349 -0.6595451647663612 0.0
C C 0.4618187509859613 -0.24458973676355972 -0.6397445914515757 0.0
H H 0.48504995098596126 -0.3107597367635597 -0.6151245914515756 0.0
C C 0.41316347673289344 -0.283783340183891 -0.7191595889431872 0.0
H H 0.41045467673289343 -0.38175334018389107 -0.7307395889431871 0.0
C C 0.5761345510886893 0.1590577567253786 -0.550605758941087 0.0
H H 0.5865234510886893 0.2542877567253786 -0.553383858941087 0.0
C C 0.5274724122189597 0.106584850161973 -0.6035061718755955 0.0
H H 0.5101012122189598 0.171214850161973 -0.6396861718755955 0.0
C C 0.508122794921452 -0.06345231280202233 -0.6094052541740616 0.0
C C 0.547799640878295 -0.11884335608478486 -0.5509266018994775 0.0
H H 0.537758540878295 -0.21381335608478477 -0.5459948018994777 0.0
C C 0.5791460941908695 -0.08703299117262442 -0.4894714764226325 0.0
H H 0.5970049941908695 -0.1492029911726244 -0.45247967642263254 0.0
