_cell_length_a 27.1013
_cell_length_b 9.27321
_cell_length_c 16.979215
_cell_angle_alpha 90.0
_cell_angle_beta 99.1565
_cell_angle_gamma 90.0
_symmetry_space_group_name_H-M         'P 1'
_symmetry_Int_Tables_number            1
loop_
_symmetry_equiv_pos_as_xyz
   'x, y, z'
                         
loop_
_atom_site_label
_atom_site_type_symbol
_atom_site_fract_x 
_atom_site_fract_y
_atom_site_fract_z
_atom_site_charge
Zn Zn -0.1708775483928699 0.7905717121953114 -0.3419516745626765 0.0
Zn Zn -0.17116223063543262 0.39524939311663276 -0.5374429808013791 0.0
O O -0.22930098620893316 0.6558678853750932 -0.30997553145986995 0.0
O O -0.17517958173362091 0.6504948217614163 -0.42181316737238816 0.0
O O -0.20345256876451384 0.4019468034149644 -0.4455908147408367 0.0
O O -0.3036587045523592 0.30103575753746303 -0.4123174819396549 0.0
O O -0.3748511739074753 0.4548004300404247 -0.4687861667536097 0.0
O O -0.3247943784668665 0.4227780101760204 -0.2355851451554442 0.0
O O -0.35168431746128953 0.6321869447005852 -0.21457116574068122 0.0
O O -0.32062498016901225 0.9450160849291478 -0.3742770821819515 0.0
O O -0.2375296815146591 0.8891233728468594 -0.3958972572225145 0.0
N N -0.1107579989998525 0.6929681226309911 -0.2805552321010588 0.0
N N 0.09289393552547112 0.44227250726543577 -0.014166792926482668 0.0
C C -0.25139076555556905 0.543421465372989 -0.35803226185836345 0.0
H H -0.24685176555556904 0.455901465372989 -0.32533086185836346 0.0
C C -0.28739442231109114 0.5567673475990367 -0.4010417692756998 0.0
H H -0.2877354223110911 0.6138373475990367 -0.44974036927569977 0.0
C C -0.31469183400559525 0.6423872086485191 -0.32737806894457694 0.0
H H -0.34336283400559525 0.695157208648519 -0.3559366689445769 0.0
C C -0.27584942779153215 0.7267020517779065 -0.3059850334934115 0.0
H H -0.27894042779153216 0.7602820517779066 -0.25223363349341155 0.0
C C -0.2059557748898208 0.5397409891219248 -0.43066432693667894 0.0
C C -0.33031588869959233 0.418703812191267 -0.4129385167163371 0.0
C C -0.3338680729699726 0.5608264671650712 -0.26222628388777913 0.0
C C -0.2783643542101217 0.869072723282833 -0.37860254433335067 0.0
C C -0.09507120235907635 0.5747737465093424 -0.2339030380637567 0.0
H H -0.11952010235907636 0.5117437465093424 -0.2581212380637567 0.0
C C -0.06096510656531175 0.4853997267202866 -0.17782612282440569 0.0
H H -0.059053906565311745 0.3865697267202866 -0.16848422282440573 0.0
C C -0.040750027215979395 0.5785162455594998 -0.17826782216272205 0.0
C C -0.04822240635984162 0.7065195674353564 -0.1523076959573533 0.0
H H -0.024991206359841627 0.7726895674353564 -0.12768769595735333 0.0
C C -0.07649612776938709 0.7996513176836987 -0.24789966781273737 0.0
H H -0.07920492776938708 0.8976213176836988 -0.25947966781273735 0.0
C C 0.07760600599200496 0.3776403015533378 -0.0789444181781503 0.0
H H 0.08799490599200496 0.28241030155333774 -0.08172251817815031 0.0
C C 0.024707039650887743 0.37755494397025124 -0.12581039718550846 0.0
H H 0.007335839650887744 0.3129249439702513 -0.16199039718550848 0.0
C C 0.011967627023114739 0.515815410484855 -0.11022387607700641 0.0
C C 0.04142558347807886 0.6276350375145738 -0.07155741398439766 0.0
H H 0.031384483478078866 0.7226050375145738 -0.06662561398439766 0.0
C C 0.09512254795390646 0.5796541318339524 0.0022331406115909066 0.0
H H 0.11298144795390647 0.6418241318339524 0.0392249406115909 0.0
Zn Zn 0.16699360694882176 0.7964111562555348 0.8301543199572895 0.0
Zn Zn 0.16473700893622747 0.387323000428893 1.0339289740578765 0.0
O O 0.23697263382697323 0.6787333495558459 0.8023905914739463 0.0
O O 0.1694984743755046 0.6782771410531668 0.9252395824404067 0.0
O O 0.200838687329779 0.38412143451401637 0.9514379741751846 0.0
O O 0.29704857568920706 0.2616508415530627 0.915015136238889 0.0
O O 0.36850123916890526 0.41037691804375315 0.9682453523821126 0.0
O O 0.3145855652807577 0.405585954582932 0.7618523271549391 0.0
O O 0.3575050952637397 0.6130509885924872 0.731644481372252 0.0
O O 0.317261649644565 0.9052655290836912 0.8684354708705012 0.0
O O 0.2437498307402453 0.8882603172340086 0.8965448540720358 0.0
N N 0.10834507726150669 0.6837280026386107 0.7385459158015666 0.0
N N -0.10329633727005609 0.4335689185819359 0.5186740823154629 0.0
C C 0.2393132877303539 0.5280156414250272 0.8574176859500551 0.0
H H 0.23477428773035386 0.4404956414250271 0.8247162859500551 0.0
C C 0.3030587769350686 0.5354856273536827 0.8959899606751457 0.0
H H 0.3033997769350686 0.5925556273536826 0.9446885606751456 0.0
C C 0.3156297293960871 0.6548118490260098 0.8347113423497869 0.0
H H 0.3443007293960871 0.7075818490260097 0.8632699423497869 0.0
C C 0.27983724672690624 0.7431882197169631 0.8110152577495565 0.0
H H 0.28292824672690625 0.7767682197169633 0.7572638577495563 0.0
C C 0.2080675588301867 0.5311794009995441 0.9056721889758427 0.0
C C 0.3120405573245188 0.39841442121503556 0.9161526355323686 0.0
C C 0.3323586375691936 0.5377933532131646 0.7758600844031874 0.0
C C 0.2813632507146527 0.8712608813192079 0.8784460432391632 0.0
C C 0.09724944530995439 0.5436358918603144 0.7500161774769336 0.0
H H 0.12169834530995438 0.4806058918603143 0.7742343774769336 0.0
C C 0.06880905314662353 0.5124928638878646 0.6953493317417883 0.0
H H 0.06689785314662354 0.4136628638878647 0.6860074317417882 0.0
C C 0.017266063894568157 0.5965668920040896 0.6632369331250676 0.0
C C 0.03936216238290271 0.7303750869338478 0.6609882752915532 0.0
H H 0.016130962382902715 0.7965450869338477 0.6363682752915532 0.0
C C 0.057632629527934964 0.7671434638866012 0.7688053053056231 0.0
H H 0.060341429527934955 0.8651134638866015 0.7803853053056231 0.0
C C -0.0674489545848265 0.3600277695267851 0.5329110238537683 0.0
H H -0.07783785458482652 0.2647977695267851 0.5356891238537683 0.0
C C -0.02790763168609372 0.39744986164923224 0.6019033770034934 0.0
H H -0.01053643168609372 0.33281986164923233 0.6380833770034934 0.0
C C -0.019004383646186177 0.5404059392373547 0.6061107490050573 0.0
C C -0.041094956494527594 0.6196323727483601 0.576892750947736 0.0
H H -0.031053856494527583 0.7146023727483601 0.571960950947736 0.0
C C -0.08047143442592901 0.5824262838184863 0.4886778427712023 0.0
H H -0.09833033442592902 0.6445962838184863 0.4516860427712024 0.0
Zn Zn 0.338947213191437 1.2731627065245725 -0.32983728141518104 0.0
Zn Zn 0.3272549417625867 0.9072484658928577 -0.5314199131416188 0.0
O O 0.26327196193393676 1.1354189204001495 -0.3178655295102171 0.0
O O 0.33312950525075724 1.1383283463021905 -0.4023550389532913 0.0
O O 0.28759475067227047 0.9219426708468982 -0.47378735375642056 0.0
O O 0.1897062859805499 0.7924001254198508 -0.41355503929422394 0.0
O O 0.13035267795831323 0.8998994578833687 -0.4532277947433877 0.0
O O 0.18980143946722558 0.9531986954681866 -0.24375833521830054 0.0
O O 0.14127236019030334 1.1410779711756047 -0.22070546498890545 0.0
O O 0.18467928374421902 1.4485058472985834 -0.3598453443345434 0.0
O O 0.2631664181679078 1.3513940956840857 -0.40757562603278247 0.0
N N 0.3813928820666542 1.1939923106925152 -0.28666263851059215 0.0
N N 0.6048837314842532 0.9361841921690682 -0.014337116591902432 0.0
C C 0.2584775449567266 1.0179876627290585 -0.36425199282761017 0.0
H H 0.2630165449567266 0.9304676627290582 -0.3315505928276102 0.0
C C 0.20929762815600983 1.0384381908146396 -0.395609976381332 0.0
H H 0.2089566281560099 1.0955081908146396 -0.44430857638133203 0.0
C C 0.17869286938985432 1.1419485468681714 -0.3429906006960605 0.0
H H 0.15002186938985432 1.1947185468681718 -0.3715492006960605 0.0
C C 0.22392018666950494 1.2285811332613081 -0.31584317716437343 0.0
H H 0.2208291866695049 1.262161133261308 -0.26209177716437343 0.0
C C 0.288959625920843 1.021587270465353 -0.4109758438758367 0.0
C C 0.15997520188158643 0.9461597463067362 -0.4375264205214897 0.0
C C 0.16378030625997408 1.0732057006477664 -0.2726861721155183 0.0
C C 0.22202236557750304 1.34712825720726 -0.3573531526835961 0.0
C C 0.3888483798847177 1.0673412996405842 -0.24179393065276253 0.0
H H 0.36439947988471777 1.004311299640584 -0.2660121306527625 0.0
C C 0.42480711505198754 0.9694209215474139 -0.21050212309418023 0.0
H H 0.4267183150519875 0.8705909215474139 -0.20116022309418027 0.0
C C 0.4625004509468033 1.058789327590491 -0.16699093303453239 0.0
C C 0.4676207918118268 1.2535304077886382 -0.15317800478291949 0.0
H H 0.49085199181182676 1.3197004077886383 -0.12855800478291948 0.0
C C 0.41531443676937246 1.2698633001262996 -0.2266468132154014 0.0
H H 0.4126056367693724 1.3678333001262997 -0.23822681321540137 0.0
C C 0.5736287508569248 0.850156481188691 -0.05640971939919401 0.0
H H 0.5840176508569249 0.754926481188691 -0.05918781939919401 0.0
C C 0.5240159199169561 0.8823927184045623 -0.10411731968205298 0.0
H H 0.5066447199169561 0.8177627184045623 -0.14029731968205297 0.0
C C 0.5166452721520086 1.0578728375703068 -0.09019703612780024 0.0
C C 0.538752729255836 1.1110564323600818 -0.059116093809172446 0.0
H H 0.528711629255836 1.2060264323600816 -0.054184293809172446 0.0
C C 0.588939853549256 1.0971945570781252 -0.003012998193828544 0.0
H H 0.606798753549256 1.159364557078125 0.03397880180617146 0.0
Zn Zn 0.6782253716393992 1.2885434223422778 0.8317915043169692 0.0
Zn Zn 0.6656489823530115 0.8960039892720285 1.0367401647227186 0.0
O O 0.7332109849953462 1.1611391864876535 0.795915311634897 0.0
O O 0.6851758003652672 1.1158217650755586 0.9289835020652943 0.0
O O 0.7073105661217312 0.9234807448637323 0.9526339088298735 0.0
O O 0.8062530459388295 0.8046862701889852 0.9168386093635748 0.0
O O 0.8694296330976234 0.9119560310688133 0.9765643201727856 0.0
O O 0.8303837955043596 0.9285294703849912 0.7542096048706833 0.0
O O 0.8524567535026334 1.1131501106443566 0.71607013699063 0.0
O O 0.8286838467662648 1.455450604105505 0.8819268438833117 0.0
O O 0.7367270311173445 1.4148791327239538 0.9040687513389974 0.0
N N 0.6149920581714742 1.1912634431736548 0.7655497839221908 0.0
N N 0.40266707598166435 0.9220808324200491 0.5197170638546282 0.0
C C 0.740657767287357 1.0164382867441606 0.8589149719750351 0.0
H H 0.736118767287357 0.9289182867441604 0.8262135719750351 0.0
C C 0.799901372469498 1.0188193706453752 0.8912938940810824 0.0
H H 0.8002423724694977 1.0758893706453752 0.9399924940810824 0.0
C C 0.8204889611959575 1.1450309050346734 0.8243631610093272 0.0
H H 0.8491599611959575 1.1978009050346738 0.8529217610093272 0.0
C C 0.7906233744107463 1.246939939506419 0.8244247289230167 0.0
H H 0.7937143744107462 1.2805199395064188 0.7706733289230165 0.0
C C 0.7037922963064415 1.0236416904591539 0.925910047584689 0.0
C C 0.8170833402911716 0.9024591911362899 0.9248236016461716 0.0
C C 0.8306186404322146 1.0553607876576625 0.7692125506313592 0.0
C C 0.7737095405009385 1.3848444661591106 0.8758167722944196 0.0
C C 0.6093054332303581 1.0485387802536694 0.7447822928150462 0.0
H H 0.6337543332303582 0.9855087802536693 0.7690004928150462 0.0
C C 0.5655199388110179 1.0061889939846396 0.690280974980166 0.0
H H 0.5636087388110178 0.9073589939846396 0.6809390749801661 0.0
C C 0.5334568930686484 1.0836444056124168 0.6816343838964659 0.0
C C 0.5284663748127786 1.2493186952936801 0.6559665238468996 0.0
H H 0.5052351748127786 1.3154886952936802 0.6313465238468995 0.0
C C 0.5754645989761505 1.2712460572459219 0.7192025297652811 0.0
H H 0.5781733989761506 1.3692160572459222 0.7307825297652811 0.0
C C 0.43611299802390197 0.871772605484646 0.5548924517857036 0.0
H H 0.42572409802390193 0.776542605484646 0.5576705517857036 0.0
C C 0.477163628271108 0.909442378530911 0.6147929862805542 0.0
H H 0.4945348282711079 0.8448123785309111 0.6509729862805542 0.0
C C 0.4868079737104919 1.0516476703811108 0.6211379849529939 0.0
C C 0.4509248551416639 1.1168669777021052 0.5656679329983536 0.0
H H 0.4609659551416639 1.2118369777021052 0.5607361329983538 0.0
C C 0.40124356419419327 1.0653301970976103 0.4931754061996395 0.0
H H 0.3833846641941933 1.1275001970976102 0.4561836061996396 0.0
Zn Zn 0.1744098635781889 -0.7822041654359758 0.34554688326808 0.0
Zn Zn 0.173681660017642 -0.39395288006568535 0.5471022468436891 0.0
O O 0.23627385874359164 -0.6411060535297367 0.30459265718280176 0.0
O O 0.1801745577858867 -0.6392836294565922 0.44418989692422384 0.0
O O 0.21527430103756692 -0.4400691653964763 0.45743303703853916 0.0
O O 0.30857108980186315 -0.2995053880093261 0.4211048449023032 0.0
O O 0.356399323180972 -0.4402646078612285 0.4617382904373101 0.0
O O 0.30995215684624944 -0.4400824313639096 0.25031816088466047 0.0
O O 0.35675615840618335 -0.6336697554970591 0.22726025886272375 0.0
O O 0.33094685268007423 -0.9281402832539675 0.38804458486287 0.0
O O 0.24459677486288892 -0.8892223862573788 0.4030218417550419 0.0
N N 0.11431266288235264 -0.6984004056352373 0.2862643779639235 0.0
N N -0.09801007306562062 -0.43698828866615097 0.003290433952554377 0.0
C C 0.2412350228902681 -0.5489705619784787 0.3523871288158297 0.0
H H 0.23669602289026814 -0.4614505619784787 0.31968572881582974 0.0
C C 0.30486221679363135 -0.5380296873036189 0.40783649592166404 0.0
H H 0.3052032167936314 -0.595099687303619 0.4565350959216641 0.0
C C 0.33253955526812184 -0.6526448737865088 0.33435724397034616 0.0
H H 0.36121055526812185 -0.7054148737865088 0.36291584397034615 0.0
C C 0.27132024030801416 -0.7330036416244436 0.3093457540803373 0.0
H H 0.27441124030801417 -0.7665836416244438 0.2555943540803373 0.0
C C 0.21035587430699115 -0.5567040337554435 0.4312764822499717 0.0
C C 0.318442865548241 -0.386762235412994 0.4373459570446274 0.0
C C 0.33128238375173286 -0.5540050848023746 0.270109250852091 0.0
C C 0.27601789078910055 -0.8629284449656066 0.3634139147425514 0.0
C C 0.10965949854056235 -0.5862272359443879 0.2542719322670106 0.0
H H 0.13410839854056236 -0.5231972359443878 0.2784901322670106 0.0
C C 0.06514731274420209 -0.4964976601960372 0.21144674433085328 0.0
H H 0.06323611274420209 -0.3976676601960372 0.20210484433085332 0.0
C C 0.03654443539633317 -0.5998304311718521 0.16319017732279698 0.0
C C 0.045364215316013194 -0.7668815186950576 0.172367022625816 0.0
H H 0.022133015316013204 -0.8330515186950577 0.147747022625816 0.0
C C 0.08575322564855432 -0.7827149696966494 0.21528460519017534 0.0
H H 0.08846202564855432 -0.8806849696966496 0.22686460519017532 0.0
C C -0.07855158520738416 -0.34228324425440154 0.04189142070884563 0.0
H H -0.08894048520738417 -0.2470532442544015 0.044669520708845625 0.0
C C -0.032663723246939703 -0.41825943395479265 0.10329680482982867 0.0
H H -0.015292523246939698 -0.3536294339547927 0.1394768048298287 0.0
C C -0.010629504411851478 -0.5155196725460374 0.11947799953577103 0.0
C C -0.04231324429180947 -0.6361372270996023 0.048176173390995475 0.0
H H -0.032272144291809475 -0.7311072270996023 0.043244373390995475 0.0
C C -0.0682802867342961 -0.5512871387990215 0.01698525332200514 0.0
H H -0.08613918673429612 -0.6134571387990214 -0.02000654667799486 0.0
Zn Zn -0.1688943124062113 -0.8002291459660053 -0.8628725644705633 0.0
Zn Zn -0.17673129135536597 -0.3925732368366758 -1.0408603485919137 0.0
O O -0.2271864112894787 -0.648942774269595 -0.805231298397987 0.0
O O -0.17503840974826643 -0.6373222906478508 -0.910076733819659 0.0
O O -0.20455277393180482 -0.40428469384038246 -0.9745161069079546 0.0
O O -0.3153279088036651 -0.2639875786425914 -0.9141721176796378 0.0
O O -0.36468324362961874 -0.40748475220018027 -0.9564040895696956 0.0
O O -0.316583431246626 -0.4537458235698927 -0.7452355488934823 0.0
O O -0.36370463533728115 -0.6166801913545172 -0.7286326431740134 0.0
O O -0.3150959376865001 -0.9516337318585449 -0.8643966668439689 0.0
O O -0.24094053476817734 -0.9019330146036297 -0.9135349536183314 0.0
N N -0.09797891560525171 -0.6834018692351266 -0.7604483834820234 0.0
N N 0.10489088640907182 -0.44277432011805007 -0.49456716556711866 0.0
C C -0.24848357582131392 -0.5466875456457999 -0.8580261443219548 0.0
H H -0.24394457582131387 -0.4591675456457998 -0.8253247443219548 0.0
C C -0.297843585386701 -0.5326450623349892 -0.8997183473176041 0.0
H H -0.298184585386701 -0.5897150623349893 -0.9484169473176042 0.0
C C -0.32847730467800673 -0.6458529929097567 -0.824008476571658 0.0
H H -0.35714830467800673 -0.6986229929097567 -0.852567076571658 0.0
C C -0.28397143911950007 -0.7348756797306016 -0.8125478997717365 0.0
H H -0.2870624391195001 -0.7684556797306018 -0.7587964997717362 0.0
C C -0.20084265103370277 -0.5166829486105401 -0.9132167209770043 0.0
C C -0.3280563797344159 -0.4133607515765411 -0.9119059905254492 0.0
C C -0.3381501284284038 -0.5619265102421551 -0.771245779375955 0.0
C C -0.2832777364204376 -0.899309642507017 -0.8578043465827628 0.0
C C -0.11207900409640827 -0.5735995438488017 -0.7408559435852511 0.0
H H -0.13652790409640825 -0.5105695438488017 -0.765074143585251 0.0
C C -0.07433021172209257 -0.49360275261186115 -0.6935761411906435 0.0
H H -0.07241901172209257 -0.39477275261186123 -0.6842342411906435 0.0
C C -0.018846323424234063 -0.5779834202890503 -0.6480373253570516 0.0
C C -0.021835257172347654 -0.7603447009447308 -0.6953030682997972 0.0
H H 0.0013959428276523454 -0.8265147009447308 -0.6706830682997971 0.0
C C -0.07763494368285923 -0.796508461104254 -0.7335518963862563 0.0
H H -0.08034374368285921 -0.8944784611042541 -0.7451318963862562 0.0
C C 0.07743689406875388 -0.3562326699120591 -0.5412727480776984 0.0
H H 0.08782579406875389 -0.26100266991205906 -0.5440508480776984 0.0
C C 0.037940443908078866 -0.38131013194673347 -0.5951837156833465 0.0
H H 0.020569243908078867 -0.3166801319467335 -0.6313637156833465 0.0
C C 0.014240341534065061 -0.561649255195612 -0.6162087602113795 0.0
C C 0.03434270319213456 -0.6069473448674879 -0.5305859354750299 0.0
H H 0.02430160319213455 -0.7019173448674879 -0.52565413547503 0.0
C C 0.07776029329033002 -0.5899718551000391 -0.5044162223085894 0.0
H H 0.09561919329033003 -0.6521418551000391 -0.4674244223085895 0.0
Zn Zn 0.6666144834195566 -0.2694113890211673 0.3403944787725414 0.0
Zn Zn 0.6753436723698693 0.10490840647191929 0.5492099928854239 0.0
O O 0.7330808001439028 -0.1381531003148338 0.30624804921681725 0.0
O O 0.6775536559929003 -0.10456079671589674 0.42058100943890614 0.0
O O 0.7165025493471365 0.05848014753656368 0.4703303997498845 0.0
O O 0.7900676400270604 0.22325971942598705 0.3932526481966668 0.0
O O 0.8631915721570843 0.05670661062989834 0.4854141227848686 0.0
O O 0.8270248947151603 0.06025506000773145 0.2528627970962495 0.0
O O 0.8663649966937046 -0.11137747028112817 0.2374223564097633 0.0
O O 0.8234862466088069 -0.4444054076490208 0.37844094346973073 0.0
O O 0.7422754325316082 -0.4002308565914844 0.41727857859706685 0.0
N N 0.6010660283040512 -0.17859526498773054 0.2621393981578197 0.0
N N 0.4040374472165744 0.07455422376549727 0.015687607835088862 0.0
C C 0.7442134137715829 -0.05492166818500368 0.34664403727644494 0.0
H H 0.7396744137715828 0.03259833181499635 0.313942637276445 0.0
C C 0.8003073976176722 -0.0300870087783318 0.4025622938716992 0.0
H H 0.800648397617672 -0.08715700877833175 0.4512608938716992 0.0
C C 0.8128092325632059 -0.15703317514727486 0.3406692663508178 0.0
H H 0.841480232563206 -0.20980317514727484 0.3692278663508178 0.0
C C 0.7789907547227958 -0.23072042023121192 0.31221153163790993 0.0
H H 0.7820817547227957 -0.264300420231212 0.25846013163790993 0.0
C C 0.7156301094846441 -0.012098999515416523 0.4116352160090668 0.0
C C 0.8214888231066382 0.08791027055996788 0.43027120354788123 0.0
C C 0.8325845901801038 -0.07688345117546544 0.2781938406598702 0.0
C C 0.7751922287958884 -0.3537099215546925 0.39157412590604385 0.0
C C 0.6023064932486952 -0.01772252387340806 0.24904956332260675 0.0
H H 0.6267553932486951 0.04530747612659196 0.27326776332260677 0.0
C C 0.5693638153476028 0.019083764163842807 0.22670374232476484 0.0
H H 0.5674526153476027 0.11791376416384278 0.21736184232476488 0.0
C C 0.5211324264040175 -0.08688667878428749 0.1452928762055771 0.0
C C 0.5414157427273187 -0.24701388624742976 0.18096826785849496 0.0
H H 0.5181845427273187 -0.3131838862474297 0.15634826785849498 0.0
C C 0.5865562556219421 -0.282155006833014 0.20076012261822213 0.0
H H 0.5892650556219422 -0.380125006833014 0.2123401226182221 0.0
C C 0.4235680972962485 0.15155412742121785 0.05738076260971397 0.0
H H 0.41317919729624847 0.24678412742121789 0.06015886260971397 0.0
C C 0.4698061956606601 0.11892970258321237 0.10573256100860788 0.0
H H 0.48717739566066015 0.18355970258321233 0.1419125610086079 0.0
C C 0.4829505248371305 -0.03781069851041358 0.08288123023641744 0.0
C C 0.4642579062428933 -0.13314845911616155 0.056662809987816205 0.0
H H 0.4742990062428933 -0.22811845911616155 0.05173100998781621 0.0
C C 0.40426951583765736 -0.11604888873013117 -0.0027358902600139122 0.0
H H 0.38641061583765735 -0.1782188887301311 -0.03972769026001391 0.0
Zn Zn 0.32973426104985004 -0.2851382090105118 -0.8450057574995727 0.0
Zn Zn 0.3350699189563435 0.11462429286026363 -1.046354593929211 0.0
O O 0.2660399101727238 -0.15708932226980443 -0.8262967999347317 0.0
O O 0.31866058414992804 -0.12860655869033216 -0.924484653548413 0.0
O O 0.285248080330667 0.05314907286785741 -0.9528676208828443 0.0
O O 0.20456999357983535 0.1933929841402748 -0.922824893902833 0.0
O O 0.13325518026470706 0.08362903264378288 -0.9763597327991129 0.0
O O 0.1734116871898402 0.05949614241065668 -0.7702040180932979 0.0
O O 0.14134698583019492 -0.12652876584493286 -0.7185960355020178 0.0
O O 0.185049331595583 -0.44177054955240413 -0.868054797489905 0.0
O O 0.26543061409398255 -0.3774782135041357 -0.8920463601720864 0.0
N N 0.39187570017758483 -0.19387556576519294 -0.7507508160130462 0.0
N N 0.5986812330267631 0.06185092212502923 -0.5123522349416709 0.0
C C 0.2685073673520273 -0.025642245733596743 -0.8575964865573734 0.0
H H 0.2730463673520273 0.06187775426640328 -0.8248950865573734 0.0
C C 0.20374476832301863 -0.03750845724575474 -0.8917486301920895 0.0
H H 0.20340376832301862 -0.09457845724575469 -0.9404472301920895 0.0
C C 0.1830157987606539 -0.12906387910398265 -0.8382465817441096 0.0
H H 0.1543447987606539 -0.18183387910398263 -0.8668051817441096 0.0
C C 0.2200775931702695 -0.23072047964749764 -0.8249977984290051 0.0
H H 0.21698659317026953 -0.2643004796474977 -0.7712463984290049 0.0
C C 0.29970958996173863 -0.04210973472212763 -0.9237039319403012 0.0
C C 0.17157785390995456 0.09106512092430617 -0.9357821724363519 0.0
C C 0.16148469203929341 -0.04214772683424812 -0.7777634549226254 0.0
C C 0.22263515878302534 -0.34619505281418156 -0.8697833421641372 0.0
C C 0.38435175365333524 -0.05375648445428965 -0.7486722670065747 0.0
H H 0.35990285365333524 0.009273515545710376 -0.7728904670065747 0.0
C C 0.4311110694078372 -0.03961666133374368 -0.6977095539517234 0.0
H H 0.4330222694078373 0.05921333866625629 -0.6883676539517234 0.0
C C 0.4697942307302896 -0.11296721181093991 -0.6657031215802898 0.0
C C 0.4507795168437802 -0.24027549488337382 -0.6511377386704905 0.0
H H 0.47401071684378016 -0.3064454948833738 -0.6265177386704904 0.0
C C 0.43381303982670927 -0.27063562459637414 -0.7050851772794267 0.0
H H 0.43110423982670937 -0.36860562459637414 -0.7166651772794266 0.0
C C 0.5859404563598505 0.15955667223709075 -0.5600678681698347 0.0
H H 0.5963293563598504 0.2547866722370907 -0.5628459681698347 0.0
C C 0.5334075496300921 0.11946428804942721 -0.6245657470127389 0.0
H H 0.5160363496300923 0.1840942880494272 -0.660745747012739 0.0
C C 0.5212818134879147 -0.028181752916946752 -0.6068307791712219 0.0
C C 0.54691163918573 -0.14218022173405342 -0.538444798677837 0.0
H H 0.53687053918573 -0.23715022173405345 -0.5335129986778372 0.0
C C 0.5879934419092934 -0.06815638916543725 -0.5085182263488163 0.0
H H 0.6058523419092934 -0.1303263891654372 -0.4715264263488164 0.0
