_cell_length_a 27.1013
_cell_length_b 9.27321
_cell_length_c 16.979215
_cell_angle_alpha 90.0
_cell_angle_beta 99.1565
_cell_angle_gamma 90.0
_symmetry_space_group_name_H-M         'P 1'
_symmetry_Int_Tables_number            1
loop_
_symmetry_equiv_pos_as_xyz
   'x, y, z'
                         
loop_
_atom_site_label
_atom_site_type_symbol
_atom_site_fract_x 
_atom_site_fract_y
_atom_site_fract_z
_atom_site_charge
Zn Zn -0.1796379629525113 0.7967018289216963 -0.3502912311187107 0.0
Zn Zn -0.1664005979166974 0.3696645597477194 -0.5530253621162647 0.0
O O -0.21934463684047126 0.6886847730811086 -0.301529183837987 0.0
O O -0.1696743235613568 0.6144326813773227 -0.43027781567562895 0.0
O O -0.21331719028541768 0.41173054245975815 -0.46007231218882677 0.0
O O -0.2972452772211833 0.28950721493774395 -0.40259275908214787 0.0
O O -0.35949075410865167 0.41386842535186535 -0.460491994188695 0.0
O O -0.32131710650814976 0.4291201657096505 -0.2586395053487801 0.0
O O -0.3475424127523122 0.6803665705354117 -0.205780248391044 0.0
O O -0.3144422599713584 0.9564639104585647 -0.3721760771627981 0.0
O O -0.23746807647464585 0.8632844204988807 -0.4080576952944355 0.0
N N -0.10159033651867329 0.7026599657820185 -0.27540557311888225 0.0
N N 0.1056319980870776 0.40681936422533654 0.0019200222100892188 0.0
C C -0.2486532917907291 0.49376408398155075 -0.3592872673625136 0.0
H H -0.24411429179072913 0.40624408398155065 -0.3265858673625136 0.0
C C -0.2942124630987156 0.5246314068375366 -0.40122973008642937 0.0
H H -0.2945534630987156 0.5817014068375367 -0.44992833008642935 0.0
C C -0.3182603582322116 0.6217742545914311 -0.3405464196038571 0.0
H H -0.34693135823221155 0.6745442545914311 -0.3691050196038571 0.0
C C -0.2818612576636506 0.7180912385719672 -0.30802090846636276 0.0
H H -0.2849522576636506 0.7516712385719674 -0.2542695084663628 0.0
C C -0.2155214199591452 0.5579517793716214 -0.41485876774958536 0.0
C C -0.3193139632951214 0.39540431597918435 -0.4079519440732332 0.0
C C -0.3387535132906814 0.5680837452723495 -0.272538861345838 0.0
C C -0.2741898971776379 0.862907837283942 -0.3747966678779657 0.0
C C -0.1097646672400224 0.5791527371941435 -0.23452104723998204 0.0
H H -0.1342135672400224 0.5161227371941435 -0.25873924723998204 0.0
C C -0.07952116895363555 0.512469921974123 -0.1906495588256612 0.0
H H -0.07760996895363555 0.413639921974123 -0.18130765882566124 0.0
C C -0.03280077775292738 0.607294222794156 -0.15495137873231174 0.0
C C -0.036873354036681086 0.7475338138572959 -0.1965962521197612 0.0
H H -0.013642154036681092 0.8137038138572958 -0.17197625211976117 0.0
C C -0.08387490895796688 0.7883921062725185 -0.22919731277522676 0.0
H H -0.08658370895796688 0.8863621062725187 -0.24077731277522674 0.0
C C 0.06681373404406245 0.32416884524817435 -0.05597751073880484 0.0
H H 0.07720263404406243 0.2289388452481743 -0.05875561073880483 0.0
C C 0.03156710235475663 0.42236874439834793 -0.11501277272349096 0.0
H H 0.01419590235475663 0.35773874439834796 -0.15119277272349096 0.0
C C 0.017095325794780764 0.545540229199969 -0.1085004841289414 0.0
C C 0.05099722506975737 0.6287340733783388 -0.0658971107801606 0.0
H H 0.04095612506975737 0.7237040733783389 -0.060965310780160605 0.0
C C 0.08465595557377624 0.550449825179881 -0.009148312852711105 0.0
H H 0.10251485557377625 0.6126198251798809 0.027843487147288896 0.0
Zn Zn 0.1777755872337381 0.7676935126418596 0.8580862529678617 0.0
Zn Zn 0.17242601515563072 0.4009040820065025 1.0492426947950693 0.0
O O 0.23303996140649239 0.6943763880668113 0.8099983715063513 0.0
O O 0.16946273064515985 0.6455458244773282 0.9069273949946918 0.0
O O 0.20806119174877774 0.3953720862639759 0.9601327035593306 0.0
O O 0.29782840678056466 0.2853575134337064 0.9192028099377806 0.0
O O 0.3665994691721218 0.4040910533781625 0.9712053992520874 0.0
O O 0.31791246484908875 0.4470151097555467 0.753955025140423 0.0
O O 0.3615368024408954 0.675721332700573 0.7564631525852872 0.0
O O 0.30919135365875056 0.9134937803936254 0.8879789022106682 0.0
O O 0.23229739738322325 0.9035868474733886 0.911776401536173 0.0
N N 0.11072636675595092 0.6963997378419156 0.7763599725519988 0.0
N N -0.10585557434296741 0.41582376211807204 0.5212262885593792 0.0
C C 0.24545443414509752 0.541273658211758 0.8629599335140046 0.0
H H 0.2409154341450975 0.45375365821175795 0.8302585335140046 0.0
C C 0.28917971033161344 0.5498240094803207 0.9044164840318537 0.0
H H 0.2895207103316134 0.6068940094803207 0.9531150840318537 0.0
C C 0.33314804905403717 0.6310845169436062 0.8538534282913566 0.0
H H 0.36181904905403717 0.6838545169436062 0.8824120282913565 0.0
C C 0.27493399081328457 0.749165879003861 0.8246796552090206 0.0
H H 0.2780249908132846 0.7827458790038612 0.7709282552090204 0.0
C C 0.20295824215029423 0.5480824337039318 0.9147696249224874 0.0
C C 0.3270365015825333 0.4105190673265843 0.9245950455685386 0.0
C C 0.3368759812210622 0.5573949004710912 0.7673526061322434 0.0
C C 0.27147902148809544 0.8716751670535768 0.8545719070038665 0.0
C C 0.09863381758976703 0.552598872829262 0.729684843257584 0.0
H H 0.12308271758976702 0.489568872829262 0.753903043257584 0.0
C C 0.06947877945394486 0.4837146143659297 0.6979382164407925 0.0
H H 0.06756757945394487 0.3848846143659297 0.6885963164407924 0.0
C C 0.03022643812087314 0.621375432138517 0.670930547651173 0.0
C C 0.02927098756262119 0.7353832435326456 0.6798950454840234 0.0
H H 0.006039787562621199 0.8015532435326456 0.6552750454840233 0.0
C C 0.07064819596065834 0.7999512156017193 0.7298291718051367 0.0
H H 0.07335699596065834 0.8979212156017197 0.7414091718051367 0.0
C C -0.07289908704289294 0.3668167550382003 0.5724128850655358 0.0
H H -0.08328798704289297 0.2715867550382003 0.5751909850655358 0.0
C C -0.02869941508368556 0.39427509263795707 0.6222596070988471 0.0
H H -0.011328215083685549 0.32964509263795705 0.6584396070988471 0.0
C C -0.020263420741217283 0.551004706117566 0.6087061669144069 0.0
C C -0.04226369639298902 0.638149183944169 0.5496624742866553 0.0
H H -0.03222259639298901 0.733119183944169 0.5447306742866554 0.0
C C -0.09071695290564344 0.5768426032708542 0.5136368225512103 0.0
H H -0.10857585290564341 0.6390126032708542 0.47664502255121044 0.0
Zn Zn 0.3188003236284709 1.3024840328333906 -0.34276203081841977 0.0
Zn Zn 0.3247769630412385 0.9003203813037414 -0.556481121376409 0.0
O O 0.26791935150983515 1.1602493165323813 -0.320458124405595 0.0
O O 0.32631602383881925 1.166274036930773 -0.42292307798228396 0.0
O O 0.3069483834750866 0.889961041180132 -0.4438925669110156 0.0
O O 0.20202168503178258 0.785898436710335 -0.4027336465059811 0.0
O O 0.1475560995402214 0.9112266509666026 -0.470136995306277 0.0
O O 0.17818735930498775 0.9317474911116692 -0.2603521332598041 0.0
O O 0.12467248915243591 1.1040082188620932 -0.23743142575908022 0.0
O O 0.18623282424296403 1.4609881321764437 -0.3787617106641291 0.0
O O 0.2577360115887832 1.4189851219757694 -0.3900534591247712 0.0
N N 0.3970076824693809 1.192244608653906 -0.27475093685139623 0.0
N N 0.5878759582792559 0.9475678548405042 -0.016500575419069907 0.0
C C 0.25415327068725946 1.0216418119999087 -0.3626147559261067 0.0
H H 0.2586922706872595 0.9341218119999085 -0.3299133559261067 0.0
C C 0.2032992294601139 1.0469079219715627 -0.39805406624764833 0.0
H H 0.20295822946011388 1.1039779219715626 -0.44675266624764837 0.0
C C 0.18231708610793826 1.1372934869470117 -0.3326150730726811 0.0
H H 0.15364608610793823 1.1900634869470121 -0.3611736730726811 0.0
C C 0.22818963540322518 1.2323171683285081 -0.3136836962186127 0.0
H H 0.22509863540322517 1.2658971683285083 -0.2599322962186127 0.0
C C 0.29836224823347907 1.0309519274728336 -0.41432727159681004 0.0
C C 0.17753606894834642 0.8976063032520959 -0.41924226988646784 0.0
C C 0.1596143363645778 1.0610089229160389 -0.27385785360598375 0.0
C C 0.22537878364265584 1.3934552906345157 -0.3753703964678836 0.0
C C 0.3968392406857806 1.0479863306423869 -0.23207890013139754 0.0
H H 0.37239034068578064 0.9849563306423869 -0.2562971001313975 0.0
C C 0.44025731496464776 1.0449657735080262 -0.19692684793127418 0.0
H H 0.4421685149646477 0.9461357735080262 -0.18758494793127423 0.0
C C 0.4711782641948233 1.0991593512877693 -0.1567105524645688 0.0
C C 0.4607747957810531 1.2497228436966308 -0.16518218756975028 0.0
H H 0.4840059957810531 1.3158928436966308 -0.14056218756975028 0.0
C C 0.4235274602395023 1.288613411318417 -0.22882763576220694 0.0
H H 0.42081866023950226 1.386583411318417 -0.24040763576220692 0.0
C C 0.5716709081184248 0.8505223046268253 -0.05703329767924281 0.0
H H 0.5820598081184248 0.7552923046268253 -0.0598113976792428 0.0
C C 0.5293970877545022 0.8864541317390378 -0.08685804732392788 0.0
H H 0.5120258877545022 0.8218241317390377 -0.1230380473239279 0.0
C C 0.5173645109385976 0.9976122353561923 -0.09612127653246975 0.0
C C 0.5330847370030641 1.1074821893345848 -0.06057422048479739 0.0
H H 0.5230436370030643 1.2024521893345845 -0.05564242048479738 0.0
C C 0.5733952984614797 1.0749317188649588 -0.012048292912316542 0.0
H H 0.5912541984614799 1.1371017188649586 0.02494350708768346 0.0
Zn Zn 0.672995118352555 1.3024842620765895 0.8397388109449563 0.0
Zn Zn 0.6692706974988233 0.8978563987364252 1.0607053752194266 0.0
O O 0.728282029227579 1.1620162124236326 0.8144774365278816 0.0
O O 0.6808185396794467 1.1069150165358521 0.9365605275376386 0.0
O O 0.7114656917394756 0.9168621789347432 0.954976554814457 0.0
O O 0.8093555206876341 0.7947435179650235 0.908565426201008 0.0
O O 0.8752075315810313 0.8888670853513574 0.966187841335591 0.0
O O 0.8359738810029048 0.9620357782887143 0.7712862874112181 0.0
O O 0.8616214338531408 1.118202317225613 0.7127134458257599 0.0
O O 0.8279955676027111 1.4465200508734188 0.8806709407507387 0.0
O O 0.7472290892955609 1.4135978344789182 0.8958862932243149 0.0
N N 0.6089288463257074 1.1891320163328005 0.7704251318491028 0.0
N N 0.39603956403405444 0.9480728213393426 0.49674594259431415 0.0
C C 0.7463356750022108 1.0215650830549905 0.8497835211117865 0.0
H H 0.7417966750022109 0.9340450830549902 0.8170821211117865 0.0
C C 0.7986318358611327 1.0285466902478304 0.8883585627846707 0.0
H H 0.7989728358611324 1.0856166902478304 0.9370571627846708 0.0
C C 0.813643193989498 1.1400631430883605 0.8380340804481696 0.0
H H 0.842314193989498 1.1928331430883607 0.8665926804481696 0.0
C C 0.7747247293369747 1.241837518221878 0.8104584683817846 0.0
H H 0.7778157293369746 1.2754175182218779 0.7567070683817845 0.0
C C 0.7089178653398419 1.0052528345801863 0.9246361846774419 0.0
C C 0.8203822503475172 0.92045960307513 0.9274847150982997 0.0
C C 0.8448630020043285 1.056571995356259 0.786054700500894 0.0
C C 0.7792443790468704 1.3736487784815732 0.8729056836299217 0.0
C C 0.6182113427748154 1.0648207719035083 0.7488188418548197 0.0
H H 0.6426602427748155 1.0017907719035084 0.7730370418548197 0.0
C C 0.5584889348674227 0.9943168062084081 0.7160928466539306 0.0
H H 0.5565777348674226 0.8954868062084081 0.7067509466539308 0.0
C C 0.5316310757085043 1.099515046714681 0.6685059289518542 0.0
C C 0.5388989446572628 1.2427436701684969 0.6783480522045823 0.0
H H 0.5156677446572628 1.308913670168497 0.6537280522045822 0.0
C C 0.5928482770458371 1.253375821288043 0.7341868965137622 0.0
H H 0.5955570770458372 1.3513458212880434 0.7457668965137622 0.0
C C 0.42280888774056613 0.8429848021775646 0.5261204123056048 0.0
H H 0.41241998774056615 0.7477548021775645 0.5288985123056048 0.0
C C 0.47588306531586105 0.9041894184416241 0.6077664791546993 0.0
H H 0.49325426531586103 0.8395594184416243 0.6439464791546993 0.0
C C 0.48637773029806375 1.0437806825428293 0.6119672235574636 0.0
C C 0.44807565595176846 1.1022974626879163 0.5613721640179172 0.0
H H 0.45811675595176843 1.1972674626879163 0.5564403640179173 0.0
C C 0.40713245498265355 1.0619446381819544 0.5000401499380979 0.0
H H 0.3892735549826536 1.1241146381819542 0.46304834993809807 0.0
Zn Zn 0.1811665088437859 -0.7537775433391336 0.34912396843468846 0.0
Zn Zn 0.17771960404157322 -0.3669503007771187 0.5587097390579321 0.0
O O 0.236133685829464 -0.6409281870167152 0.30120775523588555 0.0
O O 0.1676991012795901 -0.6498415961833284 0.41158005879514176 0.0
O O 0.2064285542910065 -0.4466073245452013 0.45826879610257876 0.0
O O 0.30993556182280607 -0.3076916242486808 0.4299538277064132 0.0
O O 0.361261939028958 -0.4161038815243379 0.48621113838357005 0.0
O O 0.3221578911260196 -0.4277916568492869 0.2525678061224213 0.0
O O 0.36775219029415906 -0.6315073949827064 0.2255419492286552 0.0
O O 0.3179224744436863 -0.9113577022868677 0.37710278092267285 0.0
O O 0.23567222452393446 -0.8891003009104819 0.395279650152819 0.0
N N 0.11555518699653641 -0.6791581341935085 0.27119392098357875 0.0
N N -0.10945994731274868 -0.4304014961363232 -0.01343283254359107 0.0
C C 0.23755444204669127 -0.5359022889865931 0.3709662913210936 0.0
H H 0.2330154420466913 -0.44838228898659316 0.3382648913210936 0.0
C C 0.2948286014046438 -0.5342201043797556 0.3967063357383283 0.0
H H 0.2951696014046438 -0.5912901043797557 0.4454049357383283 0.0
C C 0.3103958083719414 -0.6104147410710202 0.33549494436708704 0.0
H H 0.33906680837194136 -0.6631847410710202 0.364053544367087 0.0
C C 0.2785017894704367 -0.7446222635266503 0.3060513631809594 0.0
H H 0.28159278947043664 -0.7782022635266505 0.2522999631809594 0.0
C C 0.2108535693852084 -0.529848720461232 0.4244173429633156 0.0
C C 0.33177391986860283 -0.4118969445374786 0.41474128143082617 0.0
C C 0.34204956991862456 -0.5577077380458104 0.2871279453926973 0.0
C C 0.27693627596814535 -0.8636444892318008 0.3721314286262685 0.0
C C 0.11184648380247417 -0.543664693357289 0.23075650112170035 0.0
H H 0.13629538380247416 -0.48063469335728903 0.25497470112170034 0.0
C C 0.07926763655865203 -0.4975124241270749 0.17929443894544275 0.0
H H 0.07735643655865201 -0.39868242412707483 0.16995253894544277 0.0
C C 0.039026220925134386 -0.5886970082789296 0.17381366948040747 0.0
C C 0.040612110857320236 -0.7458053089072708 0.1819312348463624 0.0
H H 0.017380910857320242 -0.8119753089072708 0.1573112348463624 0.0
C C 0.07968628496402468 -0.7740596125972078 0.2380539173393107 0.0
H H 0.08239508496402469 -0.8720296125972079 0.24963391733931067 0.0
C C -0.07683152862575997 -0.3576030434109801 0.054443922548585655 0.0
H H -0.08722042862575999 -0.26237304341098 0.057222022548585647 0.0
C C -0.028444808922198483 -0.3705394590749301 0.11902210807230301 0.0
H H -0.01107360892219848 -0.3059094590749301 0.15520210807230303 0.0
C C -0.011789628549274875 -0.5486823587111989 0.08986235849850169 0.0
C C -0.03466551861223238 -0.5801947147356052 0.04745075212231427 0.0
H H -0.024624418612232385 -0.6751647147356052 0.04251895212231427 0.0
C C -0.08280540614584574 -0.5784012499700404 0.022694224447870278 0.0
H H -0.10066430614584573 -0.6405712499700403 -0.014297575552129724 0.0
Zn Zn -0.17638495089031256 -0.8090306961413648 -0.8316840442103759 0.0
Zn Zn -0.15980671609234107 -0.38668160230780063 -1.0503359208255927 0.0
O O -0.226430943764969 -0.6819369754033932 -0.8042944300349459 0.0
O O -0.16561553196222029 -0.6216736006220895 -0.9309414253336428 0.0
O O -0.21551283083433215 -0.41509839911959656 -0.9679664695795921 0.0
O O -0.29607656326291143 -0.29656507554584693 -0.8857693482028444 0.0
O O -0.3602434920353739 -0.3897594552046291 -0.9553743128237446 0.0
O O -0.3187505693196997 -0.4136786333014172 -0.7330934379741584 0.0
O O -0.35233749730729186 -0.5816023268266265 -0.7146186411521501 0.0
O O -0.31216071756303215 -0.920383322434701 -0.8890914777811583 0.0
O O -0.24498447627239295 -0.9079157470249446 -0.912418796490929 0.0
N N -0.10740040521568829 -0.6842901000828449 -0.7452120204929666 0.0
N N 0.09503740412192149 -0.4401855960833939 -0.505235010787146 0.0
C C -0.24899009222514648 -0.5288837678730168 -0.860133169558059 0.0
H H -0.24445109222514647 -0.4413637678730168 -0.827431769558059 0.0
C C -0.2908831769818818 -0.5554844024212611 -0.8905619992517764 0.0
H H -0.2912241769818818 -0.612554402421261 -0.9392605992517764 0.0
C C -0.32862715006219473 -0.6327095162416662 -0.846297982197956 0.0
H H -0.3572981500621948 -0.6854795162416661 -0.874856582197956 0.0
C C -0.27204473538456597 -0.7347775904664383 -0.8060341430868307 0.0
H H -0.275135735384566 -0.7683575904664385 -0.7522827430868305 0.0
C C -0.21106773680661778 -0.5132276792256627 -0.9146604085651486 0.0
C C -0.3221488053008824 -0.3807055582051932 -0.9334289746995343 0.0
C C -0.33557793391660207 -0.5307671858095712 -0.7636840541887036 0.0
C C -0.28187595486301215 -0.8595605918150339 -0.8687470403018739 0.0
C C -0.11288112102003217 -0.6046171841429793 -0.7431249429360883 0.0
H H -0.13733002102003217 -0.5415871841429792 -0.7673431429360884 0.0
C C -0.07474795469893278 -0.46593320670173766 -0.716123559514293 0.0
H H -0.07283675469893278 -0.3671032067017377 -0.7067816595142931 0.0
C C -0.03514707914898106 -0.6316279373835489 -0.6571785970141235 0.0
C C -0.029578932544420847 -0.7339186410376536 -0.6860672430689533 0.0
H H -0.006347732544420849 -0.8000886410376535 -0.6614472430689532 0.0
C C -0.07706940323324704 -0.8008059859210549 -0.7272394097072856 0.0
H H -0.07977820323324702 -0.898775985921055 -0.7388194097072857 0.0
C C 0.07566991415757726 -0.35065113196906217 -0.5552736557656385 0.0
H H 0.0860588141575773 -0.2554211319690621 -0.5580517557656385 0.0
C C 0.020826773941953314 -0.41638433448763534 -0.5828713142015466 0.0
H H 0.0034555739419533126 -0.35175433448763543 -0.6190513142015466 0.0
C C 0.009591544725061523 -0.542621814066738 -0.593606853567599 0.0
C C 0.041906067724432276 -0.6247120507571396 -0.5487607347158676 0.0
H H 0.031864967724432265 -0.7196820507571396 -0.5438289347158678 0.0
C C 0.08817311997847942 -0.5684355116967196 -0.49354164941317424 0.0
H H 0.10603201997847939 -0.6306055116967195 -0.4565498494131744 0.0
Zn Zn 0.671498885107462 -0.2961355238486983 0.33445212956903025 0.0
Zn Zn 0.6696629249383342 0.07201304756466356 0.546389920594482 0.0
O O 0.7323715498089602 -0.15818925316643323 0.30146407913575984 0.0
O O 0.6765305429117847 -0.12383826486153603 0.41268447470675734 0.0
O O 0.703163309098736 0.11327603278276076 0.467688407064511 0.0
O O 0.7985405682173656 0.21950226551288604 0.39588640185316115 0.0
O O 0.8554381952043275 0.10164807639436031 0.45637046973879974 0.0
O O 0.8067325875223452 0.0741398016365687 0.24804951312655832 0.0
O O 0.8562568212054833 -0.13961283894537532 0.22001112930257566 0.0
O O 0.8160019183723025 -0.41778260032880754 0.3493623406164365 0.0
O O 0.7480726054663552 -0.3674304189246324 0.4067045667369693 0.0
N N 0.610544663113554 -0.1948940404825319 0.27275121966045907 0.0
N N 0.39519694669834493 0.041900470951141786 -0.004085591841557529 0.0
C C 0.7476827879245052 -0.04563708375732635 0.3592725699396322 0.0
H H 0.7431437879245051 0.041882916242673686 0.3265711699396322 0.0
C C 0.7900101140379053 -0.026018347564982853 0.40229301851884497 0.0
H H 0.7903511140379054 -0.0830883475649828 0.45099161851884495 0.0
C C 0.8265302195941328 -0.15172794439453122 0.3486654975447626 0.0
H H 0.8552012195941329 -0.2044979443945312 0.3772240975447626 0.0
C C 0.7786368177709951 -0.2362899972042516 0.3113826419761156 0.0
H H 0.7817278177709951 -0.26986999720425164 0.25763124197611564 0.0
C C 0.7044501063829978 -0.01913119455311351 0.3973400565260889 0.0
C C 0.823314479753523 0.11618029310919588 0.43073549372053904 0.0
C C 0.8427749394666124 -0.05362061011006024 0.2656633007085233 0.0
C C 0.7719479581420099 -0.39859831547242774 0.3789830052818212 0.0
C C 0.615163017333208 -0.0610590608705093 0.24481797470061992 0.0
H H 0.639611917333208 0.0019709391294907177 0.2690361747006199 0.0
C C 0.5540870705838878 0.01396999292694903 0.19730542130547837 0.0
H H 0.5521758705838877 0.11279999292694899 0.18796352130547841 0.0
C C 0.5253331239885933 -0.10309246660321403 0.1645967987680116 0.0
C C 0.5270529864524891 -0.2404505971979525 0.16392558171662774 0.0
H H 0.5038217864524892 -0.3066205971979524 0.1393055817166277 0.0
C C 0.5795047187543494 -0.26560081206354624 0.26351651756293504 0.0
H H 0.5822135187543493 -0.3635708120635463 0.275096517562935 0.0
C C 0.4252308749926989 0.15614801279297466 0.07615259620384073 0.0
H H 0.4148419749926989 0.2513780127929747 0.07893069620384072 0.0
C C 0.47040872383200927 0.0687526670209542 0.10764696828818407 0.0
H H 0.4877799238320093 0.13338266702095417 0.14382696828818406 0.0
C C 0.479518252099418 -0.04405792964730568 0.09190543904966725 0.0
C C 0.4490323863140883 -0.1475519839275188 0.03978680848137965 0.0
H H 0.45907348631408834 -0.2425219839275188 0.03485500848137966 0.0
C C 0.4284557944227962 -0.07291728841330397 -0.003809259797502438 0.0
H H 0.4105968944227961 -0.13508728841330392 -0.04080105979750244 0.0
Zn Zn 0.32586723003603946 -0.2732170617821818 -0.8516259133686184 0.0
Zn Zn 0.3322461244236454 0.08838387233130097 -1.0466467006207434 0.0
O O 0.267524641128085 -0.1335662197852508 -0.8099501302841076 0.0
O O 0.3277757791479672 -0.14440562021269984 -0.9311943325931394 0.0
O O 0.2905739385041994 0.05739452620004068 -0.9544440844470929 0.0
O O 0.20449150249372852 0.2132865471807344 -0.8892601417755948 0.0
O O 0.12748188904069424 0.10371263807781499 -0.9623044627727558 0.0
O O 0.18365085305881348 0.07705079509270665 -0.7563994335660266 0.0
O O 0.14121845354304877 -0.15094899668331957 -0.729670878606783 0.0
O O 0.17961576275162947 -0.44457733794967547 -0.8796905497245164 0.0
O O 0.26119671589105403 -0.3873746058999032 -0.8875125149102496 0.0
N N 0.39106403552601243 -0.19564090144433222 -0.76837960481011 0.0
N N 0.59599650973117 0.04470950219447717 -0.5088865312012787 0.0
C C 0.26208357809999483 -0.021624698441316904 -0.8654199013941603 0.0
H H 0.2666225780999949 0.06589530155868313 -0.8327185013941603 0.0
C C 0.19264677345353656 -0.027942614836237157 -0.8955310310999458 0.0
H H 0.19230577345353655 -0.08501261483623711 -0.9442296310999458 0.0
C C 0.18310531917220826 -0.14627846751440285 -0.83305140393719 0.0
H H 0.15443431917220823 -0.19904846751440283 -0.86161000393719 0.0
C C 0.22230127188338208 -0.24246951273701936 -0.8068474324930826 0.0
H H 0.21921027188338216 -0.2760495127370194 -0.7530960324930824 0.0
C C 0.3077710532053191 -0.050132689640230044 -0.9123501894388258 0.0
C C 0.18281635740820448 0.0797346302774861 -0.9160023952263642 0.0
C C 0.16699450928125534 -0.06992320016030176 -0.7737781816882943 0.0
C C 0.21910609800807201 -0.3782004996019714 -0.8773277326507609 0.0
C C 0.3931074268821853 -0.07673240280389285 -0.746146558823305 0.0
H H 0.36865852688218537 -0.013702402803892821 -0.770364758823305 0.0
C C 0.4206300525763671 0.01667564263307623 -0.718550005770137 0.0
H H 0.42254125257636704 0.11550564263307621 -0.7092081057701369 0.0
C C 0.4688134545410981 -0.06212787037082927 -0.6547334532057593 0.0
C C 0.4612336611012834 -0.2072875198378055 -0.6804247994593041 0.0
H H 0.4844648611012834 -0.27345751983780536 -0.655804799459304 0.0
C C 0.42629134778922545 -0.307598312659332 -0.7421874026969139 0.0
H H 0.4235825477892255 -0.405568312659332 -0.7537674026969138 0.0
C C 0.5802421006567443 0.16349905778393392 -0.5510094613119431 0.0
H H 0.5906310006567442 0.2587290577839339 -0.5537875613119431 0.0
C C 0.5382881832322319 0.1327191905808466 -0.607329611333659 0.0
H H 0.520916983232232 0.1973491905808466 -0.643509611333659 0.0
C C 0.5204444368273057 -0.054065991475736416 -0.6009486740026584 0.0
C C 0.543512573488704 -0.07312102523606136 -0.5783471445161984 0.0
H H 0.533471473488704 -0.16809102523606131 -0.5734153445161985 0.0
C C 0.5994387073276759 -0.07593616505842679 -0.49828342834006545 0.0
H H 0.617297607327676 -0.13810616505842674 -0.46129162834006554 0.0
