_cell_length_a 27.1013
_cell_length_b 9.27321
_cell_length_c 16.979215
_cell_angle_alpha 90.0
_cell_angle_beta 99.1565
_cell_angle_gamma 90.0
_symmetry_space_group_name_H-M         'P 1'
_symmetry_Int_Tables_number            1
loop_
_symmetry_equiv_pos_as_xyz
   'x, y, z'
                         
loop_
_atom_site_label
_atom_site_type_symbol
_atom_site_fract_x 
_atom_site_fract_y
_atom_site_fract_z
_atom_site_charge
Zn Zn -0.17127666541520326 0.7895785862356375 -0.35294742880239405 0.0
Zn Zn -0.16837824290365597 0.378192142978087 -0.5306676041349293 0.0
O O -0.23602615130403248 0.658218170133648 -0.3142826000607177 0.0
O O -0.16413705583772992 0.6346924985099014 -0.4245366516997331 0.0
O O -0.20259953526991464 0.4414953098938524 -0.4617476592141405 0.0
O O -0.29821095070700404 0.26627323420786025 -0.41775007498587563 0.0
O O -0.35889325337673256 0.4767596954129327 -0.45336583108961903 0.0
O O -0.33702682088733643 0.43762175184889923 -0.253032902143387 0.0
O O -0.36444293155021734 0.6085960861523525 -0.2444501955914898 0.0
O O -0.31876225006639636 0.9734484416778556 -0.3814813025196046 0.0
O O -0.2381093154416589 0.8984728138049474 -0.38880959458714703 0.0
N N -0.10443404313692593 0.6723373030084727 -0.2900439868141016 0.0
N N 0.09757634310327748 0.45830488294748595 -0.006202788850359104 0.0
C C -0.23631247817488632 0.5389850444160283 -0.3563856778620773 0.0
H H -0.23177347817488633 0.4514650444160284 -0.3236842778620773 0.0
C C -0.2894137119552433 0.5271019422520077 -0.39627775725804076 0.0
H H -0.2897547119552433 0.5841719422520077 -0.4449763572580408 0.0
C C -0.32072820183883255 0.6284478025515845 -0.3425619386427921 0.0
H H -0.3493992018388325 0.6812178025515845 -0.3711205386427921 0.0
C C -0.2766343575650931 0.72552499995198 -0.2983351958638025 0.0
H H -0.27972535756509304 0.7591049999519802 -0.24458379586380255 0.0
C C -0.21009712592573776 0.5386529939224449 -0.4216744072209141 0.0
C C -0.328102272325705 0.41159587603683234 -0.4272220166261937 0.0
C C -0.335847752218119 0.569354027764794 -0.2790654697762033 0.0
C C -0.2830884808426929 0.8659000386596374 -0.36093860630544067 0.0
C C -0.10594586390339786 0.5819002286933116 -0.2505320450354673 0.0
H H -0.13039476390339785 0.5188702286933116 -0.2747502450354673 0.0
C C -0.0662726610306161 0.5022086712012516 -0.21079901228960835 0.0
H H -0.06436146103061609 0.4033786712012516 -0.2014571122896084 0.0
C C -0.018607840083466904 0.5710190892984053 -0.14468557526628625 0.0
C C -0.03133745543756026 0.7229931042018385 -0.178735622736154 0.0
H H -0.008106255437560264 0.7891631042018386 -0.154115622736154 0.0
C C -0.06787560658156624 0.7680129653966052 -0.21347366787839772 0.0
H H -0.07058440658156626 0.8659829653966052 -0.2250536678783977 0.0
C C 0.06636845218847871 0.33178395884850204 -0.056067330991988885 0.0
H H 0.0767573521884787 0.236553958848502 -0.05884543099198888 0.0
C C 0.03596337788845062 0.3912290768612436 -0.11622125828746804 0.0
H H 0.018592177888450623 0.3265990768612437 -0.15240125828746806 0.0
C C 0.01960828600909648 0.5630313154943266 -0.08034550144692768 0.0
C C 0.051141944927426505 0.6352145879297665 -0.06965965307961015 0.0
H H 0.04110084492742651 0.7301845879297665 -0.06472785307961015 0.0
C C 0.08609872917260483 0.6051304707037163 -0.0010083661055939293 0.0
H H 0.10395762917260484 0.6673004707037162 0.03598343389440607 0.0
Zn Zn 0.17342860438979935 0.7572796664401682 0.8313696781987893 0.0
Zn Zn 0.16190950718365127 0.40498710790929543 1.049362952223161 0.0
O O 0.23079823674613079 0.6566199198776168 0.8086196496773121 0.0
O O 0.18853810245262692 0.6288064700109691 0.9302758592331745 0.0
O O 0.21217136376670365 0.41455690764964026 0.9635261730420298 0.0
O O 0.30607120278659605 0.31143696023075973 0.9029073002515916 0.0
O O 0.35243809307397267 0.40598583968530316 0.9640716639260951 0.0
O O 0.3152416125476952 0.4241957085256528 0.7631678068775541 0.0
O O 0.36284006349766124 0.6488371395891684 0.717647680753002 0.0
O O 0.31987090524677203 0.9366852624994724 0.8892010518643194 0.0
O O 0.2409675511606103 0.8950158487789018 0.89834050875389 0.0
N N 0.1087268997200237 0.7130535408620028 0.7691932888607549 0.0
N N -0.09806202049486294 0.44823719831331443 0.5145634993689139 0.0
C C 0.24137268973831236 0.5203261635710751 0.8608886416582082 0.0
H H 0.23683368973831234 0.432806163571075 0.8281872416582082 0.0
C C 0.30827389216142137 0.5540436579929513 0.894109274226814 0.0
H H 0.30861489216142135 0.6111136579929513 0.942807874226814 0.0
C C 0.31616637043522156 0.6423549296508191 0.8247459230011708 0.0
H H 0.34483737043522156 0.6951249296508191 0.8533045230011707 0.0
C C 0.2773611166779305 0.7504461883096156 0.8087916739332935 0.0
H H 0.2804521166779305 0.7840261883096158 0.7550402739332933 0.0
C C 0.2059023893940536 0.5107355220788689 0.9172003143871928 0.0
C C 0.32491268788145367 0.40310372760588015 0.9354434123284556 0.0
C C 0.3355159982757108 0.5470274767717183 0.7840523788879848 0.0
C C 0.2785372807495216 0.8472327951115691 0.8621644093431095 0.0
C C 0.10737823357418787 0.5431234271280972 0.7499282927429444 0.0
H H 0.13182713357418785 0.4800934271280972 0.7741464927429444 0.0
C C 0.06845781497576274 0.5039920178283311 0.7125870291815263 0.0
H H 0.06654661497576274 0.40516201782833117 0.7032451291815264 0.0
C C 0.027057584752153488 0.5690629667240334 0.6385216255619915 0.0
C C 0.034651306896981975 0.7595407268014625 0.6858917770505832 0.0
H H 0.011420106896981983 0.8257107268014624 0.6612717770505832 0.0
C C 0.07205203315013264 0.7807068198354314 0.7322691125151294 0.0
H H 0.07476083315013263 0.8786768198354317 0.7438491125151293 0.0
C C -0.06968489318472175 0.34234172650739086 0.5644097696883805 0.0
H H -0.08007379318472178 0.24711172650739077 0.5671878696883805 0.0
C C -0.04532232498004022 0.41225389299558124 0.6037198279829934 0.0
H H -0.027951124980040237 0.3476238929955813 0.6398998279829934 0.0
C C -0.01753468795551407 0.5545282454978023 0.6003906506615941 0.0
C C -0.03778890212077369 0.5988543065182015 0.5649116245680154 0.0
H H -0.02774780212077369 0.6938243065182015 0.5599798245680154 0.0
C C -0.09267148394915302 0.5433365338939438 0.49509340541645497 0.0
H H -0.11053038394915303 0.6055065338939438 0.45810160541645506 0.0
Zn Zn 0.33668227304226794 1.2890088979095085 -0.33955779965587485 0.0
Zn Zn 0.3326506747264624 0.9054914682696293 -0.5578128731129862 0.0
O O 0.27371749353447433 1.1648720930634058 -0.31256666426114693 0.0
O O 0.31851423515704463 1.1585152444866027 -0.43266539528295983 0.0
O O 0.3024935274152315 0.8625945700982064 -0.44425515170381397 0.0
O O 0.1911830202199529 0.7871710010390581 -0.40394318493111625 0.0
O O 0.13691839775116596 0.8885797497149065 -0.45853737864088573 0.0
O O 0.17938473570179092 0.9356016272488522 -0.26127310945533727 0.0
O O 0.1390244874546276 1.1408019023808864 -0.2100976283560589 0.0
O O 0.17787042572637415 1.4664399153156507 -0.3621951823109383 0.0
O O 0.2658725050192622 1.3701388557270784 -0.41006414658160445 0.0
N N 0.3944344568647332 1.1830050681742854 -0.27849155325174707 0.0
N N 0.6031069525850467 0.9390983093662782 0.01044766023967698 0.0
C C 0.26365182128530534 1.0391624571902593 -0.3712147331421878 0.0
H H 0.2681908212853053 0.9516424571902591 -0.3385133331421878 0.0
C C 0.20448025016218083 1.072749988776807 -0.3934930325498161 0.0
H H 0.20413925016218085 1.129819988776807 -0.4421916325498161 0.0
C C 0.185776408702988 1.1583765598271867 -0.3353292160193637 0.0
H H 0.15710540870298803 1.211146559827187 -0.36388781601936365 0.0
C C 0.22450537930175132 1.241482998361269 -0.30999019110362225 0.0
H H 0.22141437930175126 1.2750629983612691 -0.25623879110362224 0.0
C C 0.29250771736518777 1.0445423585280567 -0.4196986161310063 0.0
C C 0.1763579631944909 0.8785477444162203 -0.43007115202872737 0.0
C C 0.16491166839371674 1.045746194006487 -0.2723670287868306 0.0
C C 0.22870864236204738 1.3705808714688439 -0.3849054791199543 0.0
C C 0.39370397053788503 1.0424737712030696 -0.25405935964462945 0.0
H H 0.3692550705378851 0.9794437712030696 -0.27827755964462947 0.0
C C 0.4355549067501801 0.9892188319205585 -0.1985269719448319 0.0
H H 0.4374661067501801 0.8903888319205586 -0.18918507194483195 0.0
C C 0.469887085355795 1.103105674084384 -0.1637995377080509 0.0
C C 0.45960057102370644 1.2251930128768467 -0.20352931247435632 0.0
H H 0.48283177102370634 1.2913630128768467 -0.17890931247435632 0.0
C C 0.42726969203809323 1.2761930082518913 -0.24721416517700842 0.0
H H 0.42456089203809316 1.3741630082518914 -0.25879416517700843 0.0
C C 0.5821146613775104 0.8349567436816083 -0.07101256158911222 0.0
H H 0.5925035613775105 0.7397267436816084 -0.0737906615891122 0.0
C C 0.5281868403768183 0.8573498881387331 -0.10432727699300634 0.0
H H 0.5108156403768184 0.7927198881387332 -0.14050727699300633 0.0
C C 0.5235134796743607 1.0310477002538148 -0.081925210070893 0.0
C C 0.5375276932992088 1.1270835232230714 -0.07339944495119606 0.0
H H 0.5274865932992088 1.2220535232230714 -0.06846764495119607 0.0
C C 0.5875934733702709 1.072755189654889 0.0005649934163550449 0.0
H H 0.605452373370271 1.1349251896548889 0.037556793416355046 0.0
Zn Zn 0.6778930028900483 1.3064183378379177 0.8518192474102283 0.0
Zn Zn 0.6736645877990678 0.8785488823943609 1.0473444393915181 0.0
O O 0.7346980168543347 1.133726425705837 0.8309192073677124 0.0
O O 0.67984598936797 1.1183572372052717 0.921243326815191 0.0
O O 0.7238459446951362 0.9021650542455295 0.9664860766165915 0.0
O O 0.8123559599184867 0.773788313716197 0.91733501013919 0.0
O O 0.861578961851525 0.8670341933756532 0.9533971131235882 0.0
O O 0.8272197343305474 0.9481137724562307 0.7522375628350746 0.0
O O 0.8528361040269669 1.110821871653877 0.7192562593955162 0.0
O O 0.8234939388123679 1.4482507849803914 0.8905138798049334 0.0
O O 0.7383225666677942 1.4291303265148994 0.9198419421532745 0.0
N N 0.6129484014855456 1.1957783766884125 0.7649122016134806 0.0
N N 0.405934282960575 0.9497334420744817 0.5190129182449146 0.0
C C 0.7324211059470016 1.0363857943410202 0.8491031993354292 0.0
H H 0.7278821059470016 0.9488657943410199 0.8164017993354292 0.0
C C 0.8008543649856235 1.0307333759656363 0.9018746459057619 0.0
H H 0.8011953649856233 1.0878033759656363 0.9505732459057619 0.0
C C 0.820373526039371 1.124944515181508 0.8432368528188521 0.0
H H 0.849044526039371 1.177714515181508 0.8717954528188521 0.0
C C 0.7791396024508079 1.2617845591698764 0.8090332775305618 0.0
H H 0.7822306024508079 1.2953645591698766 0.7552818775305615 0.0
C C 0.7036951277724586 1.0456372043992284 0.9266160633910333 0.0
C C 0.8193100995184076 0.9200677741633095 0.9293920142130536 0.0
C C 0.8366355547170404 1.0333843187263128 0.7773677776218952 0.0
C C 0.7719112281960349 1.3914725594052781 0.8576274457452554 0.0
C C 0.6243894563490023 1.053521972452032 0.7297965902857245 0.0
H H 0.6488383563490024 0.9904919724520319 0.7540147902857245 0.0
C C 0.5616839478628619 1.0361587189124764 0.7126569930389856 0.0
H H 0.5597727478628618 0.9373287189124763 0.7033150930389857 0.0
C C 0.5261346853389243 1.1052397556421123 0.671727763136399 0.0
C C 0.534884013113636 1.2356640089492212 0.6882187375592214 0.0
H H 0.511652813113636 1.3018340089492213 0.6635987375592213 0.0
C C 0.5736094502941127 1.3043301353683925 0.7206359581909865 0.0
H H 0.5763182502941129 1.4023001353683928 0.7322159581909864 0.0
C C 0.41219043075598477 0.8538050428790969 0.5540577625465803 0.0
H H 0.40180153075598474 0.7585750428790968 0.5568358625465804 0.0
C C 0.4784006034109397 0.8729731328369649 0.6176765008771429 0.0
H H 0.4957718034109397 0.8083431328369648 0.6538565008771429 0.0
C C 0.47798531506209485 1.0332747998814888 0.6239091168543427 0.0
C C 0.46871218554458266 1.1399319546103486 0.5243104709859592 0.0
H H 0.47875328554458263 1.2349019546103486 0.5193786709859594 0.0
C C 0.41111834106514744 1.0275743799422459 0.523543017524714 0.0
H H 0.39325944106514743 1.0897443799422457 0.4865512175247141 0.0
Zn Zn 0.1807080736312654 -0.7923734563590892 0.3376712278810517 0.0
Zn Zn 0.17020370853332686 -0.3799122018133526 0.5579572845816566 0.0
O O 0.2337948261953071 -0.6669620235266284 0.3042539591979359 0.0
O O 0.16642014454545134 -0.6155973716412879 0.42197090853249053 0.0
O O 0.20343921896521594 -0.42871335136314953 0.44521948923787524 0.0
O O 0.30062439303759014 -0.28084644974173517 0.3941423182282339 0.0
O O 0.37371580678375493 -0.41307200547828277 0.45503821160364416 0.0
O O 0.3219946747758324 -0.4154850520138981 0.24694035189712998 0.0
O O 0.382537614060382 -0.655729596688144 0.24501619137831232 0.0
O O 0.3165284705561229 -0.9040684000009481 0.3726665380686158 0.0
O O 0.25173228434199096 -0.8861121402465102 0.39802721562731525 0.0
N N 0.11597909714843632 -0.6875819879875965 0.27279519774100414 0.0
N N -0.11265128513637858 -0.41059185622151567 0.007057976249051408 0.0
C C 0.233049666894136 -0.5402143964742094 0.3560395070479822 0.0
H H 0.22851066689413602 -0.4526943964742094 0.3233381070479822 0.0
C C 0.29786624469352047 -0.5464398711587181 0.4110434913718856 0.0
H H 0.2982072446935205 -0.6035098711587181 0.45974209137188565 0.0
C C 0.3246752648727378 -0.6504195745977078 0.3542124821840403 0.0
H H 0.3533462648727378 -0.7031895745977078 0.38277108218404027 0.0
C C 0.2828637083771839 -0.7281916725245455 0.30298353232455816 0.0
H H 0.28595470837718395 -0.7617716725245457 0.24923213232455815 0.0
C C 0.21210135993415963 -0.5218597815159691 0.4171648075304573 0.0
C C 0.33476575099911743 -0.4270929526326149 0.4284915214820538 0.0
C C 0.3317785338709532 -0.5431188342962237 0.2638381700916318 0.0
C C 0.27629200369814416 -0.8692604699907764 0.35156371125424857 0.0
C C 0.09946076243826975 -0.532217583612343 0.250480229296489 0.0
H H 0.12390966243826976 -0.469187583612343 0.274698429296489 0.0
C C 0.07200109975444172 -0.4956547761432757 0.1917402301137153 0.0
H H 0.07008989975444171 -0.39682477614327566 0.18239833011371534 0.0
C C 0.029400812552683918 -0.5540084821116866 0.1654396696624475 0.0
C C 0.03465939249387645 -0.7382518887870032 0.19364633483795368 0.0
H H 0.011428192493876457 -0.8044218887870032 0.16902633483795368 0.0
C C 0.06412219530530804 -0.7724494013401366 0.2157714137697675 0.0
H H 0.06683099530530803 -0.8704194013401368 0.2273514137697675 0.0
C C -0.0747102161349808 -0.35083928525869623 0.05042621080376164 0.0
H H -0.0850991161349808 -0.2556092852586962 0.05320431080376163 0.0
C C -0.02591169478809609 -0.4006336380217737 0.11619063270358845 0.0
H H -0.008540494788096094 -0.3360036380217738 0.15237063270358847 0.0
C C -0.013169473691035336 -0.5114955347913237 0.12745537412933503 0.0
C C -0.05158046732726455 -0.609756251165942 0.07003636699435103 0.0
H H -0.041539367327264556 -0.7047262511659421 0.06510456699435103 0.0
C C -0.07972178756209194 -0.5628684860571248 -0.01997382014733047 0.0
H H -0.09758068756209197 -0.6250384860571248 -0.056965620147330476 0.0
Zn Zn -0.16980936229074875 -0.7871455598670678 -0.8368347366511982 0.0
Zn Zn -0.16919852011609715 -0.3788900509769661 -1.0585921016945534 0.0
O O -0.22542293571057193 -0.6622090687046356 -0.7998368110126914 0.0
O O -0.17094250456851706 -0.6041658464566747 -0.9273945820218352 0.0
O O -0.1957727457155149 -0.43119925519083474 -0.9619881255925489 0.0
O O -0.30717414758279177 -0.3122887871261862 -0.9110086493164047 0.0
O O -0.3645866669983029 -0.44093407709477694 -0.9717112171694691 0.0
O O -0.3200946031990156 -0.4509182080857847 -0.7591817181194058 0.0
O O -0.37225150421783243 -0.6565401025188627 -0.7112816902069451 0.0
O O -0.33246162161360443 -0.9488597866759758 -0.8941303494059331 0.0
O O -0.23866854588389252 -0.8976017835473095 -0.9065752199021968 0.0
N N -0.11181703713774922 -0.6568472582672785 -0.773807835871596 0.0
N N 0.10040464672428318 -0.426198709093776 -0.5119321624838992 0.0
C C -0.25409215033582017 -0.531184031337295 -0.8517407767572646 0.0
H H -0.24955315033582015 -0.44366403133729493 -0.8190393767572646 0.0
C C -0.2906923155244793 -0.5546701327016973 -0.9034428821629116 0.0
H H -0.29103331552447925 -0.6117401327016972 -0.9521414821629115 0.0
C C -0.31348391853183394 -0.6235547227826648 -0.8313887797963218 0.0
H H -0.34215491853183394 -0.6763247227826648 -0.8599473797963217 0.0
C C -0.26731747083792606 -0.7340534205763619 -0.7965715886306298 0.0
H H -0.2704084708379261 -0.7676334205763621 -0.7428201886306296 0.0
C C -0.2140640345085286 -0.5182352058053992 -0.9278548685918988 0.0
C C -0.3217091829409866 -0.4166771904809033 -0.9085674304199416 0.0
C C -0.3447575514822465 -0.5659153371468724 -0.7603685529556705 0.0
C C -0.27766082146249843 -0.8660155481903491 -0.8620308647183058 0.0
C C -0.11283357683224333 -0.5531237180603493 -0.7425366487338791 0.0
H H -0.13728247683224332 -0.49009371806034935 -0.7667548487338791 0.0
C C -0.05807243103428685 -0.5047362534047777 -0.6708351161505708 0.0
H H -0.05616123103428685 -0.4059062534047777 -0.6614932161505708 0.0
C C -0.03754070687040791 -0.5840182350236636 -0.6625229820069275 0.0
C C -0.0315067818920892 -0.756443191688764 -0.6785596864258766 0.0
H H -0.008275581892089205 -0.8226131916887639 -0.6539396864258765 0.0
C C -0.07662172616937474 -0.8098312512862942 -0.7348571211282764 0.0
H H -0.07933052616937473 -0.9078012512862943 -0.7464371211282763 0.0
C C 0.08275602389432904 -0.34634777089204877 -0.5539468954188794 0.0
H H 0.09314492389432905 -0.25111777089204873 -0.5567249954188794 0.0
C C 0.02463553407065907 -0.40969274248271775 -0.6084230815485288 0.0
H H 0.007264334070659083 -0.34506274248271773 -0.6446030815485289 0.0
C C 0.01741529085820844 -0.5261982565856174 -0.5847724463540185 0.0
C C 0.04404801297557139 -0.6311046701972628 -0.5379463425979982 0.0
H H 0.03400691297557138 -0.7260746701972628 -0.5330145425979984 0.0
C C 0.09620167665324034 -0.6235961683181406 -0.5072473719457046 0.0
H H 0.11406057665324033 -0.6857661683181406 -0.4702555719457047 0.0
Zn Zn 0.6665975551852255 -0.31218481316318175 0.3384608638119008 0.0
Zn Zn 0.6831414702547516 0.10772408300202461 0.5526690773820403 0.0
O O 0.7318969554327361 -0.135139313746274 0.3082358121072435 0.0
O O 0.6759939452047066 -0.12049004829863823 0.423139322213054 0.0
O O 0.7035142346316712 0.08167513720043082 0.46061260339187016 0.0
O O 0.8174227448464784 0.22721017104249244 0.4257449495812413 0.0
O O 0.8609769632194728 0.1009755787185796 0.46249847616328343 0.0
O O 0.8154519863889989 0.04909667522665244 0.2465785355742616 0.0
O O 0.8592260272891643 -0.13508999626548537 0.23792975977593833 0.0
O O 0.822331981488643 -0.4805319432959469 0.37653311336547546 0.0
O O 0.7317266594234684 -0.3996018585464791 0.4006887573510401 0.0
N N 0.617287657417456 -0.20898774643050436 0.2508730904550016 0.0
N N 0.39667944593794235 0.05807691141276487 0.008556249691905863 0.0
C C 0.7396808275461868 -0.027413155066939483 0.36446975834766376 0.0
H H 0.7351418275461868 0.06010684493306055 0.33176835834766377 0.0
C C 0.7993674150015295 -0.04662575947172573 0.399801143807403 0.0
H H 0.7997084150015294 -0.10369575947172568 0.448499743807403 0.0
C C 0.8292360200300848 -0.12023092887495021 0.36093016061530586 0.0
H H 0.8579070200300849 -0.1730009288749502 0.3894887606153058 0.0
C C 0.7821436924906893 -0.25274852113174917 0.30936389805321063 0.0
H H 0.7852346924906891 -0.28632852113174917 0.2556124980532106 0.0
C C 0.7021484376446625 -0.07142634662843839 0.41884626694086613 0.0
C C 0.8290782160428846 0.09208043528133543 0.42253029831094413 0.0
C C 0.8400745273609894 -0.06848316156387932 0.2618901237782195 0.0
C C 0.7781098370312578 -0.3780927929402569 0.3775719336088878 0.0
C C 0.6085119888664079 -0.054533684882679775 0.24999803552712566 0.0
H H 0.632960888866408 0.008496315117320241 0.27421623552712565 0.0
C C 0.5659226665427172 0.017010979850380806 0.22429306997155765 0.0
H H 0.564011466542717 0.11584097985038079 0.21495116997155767 0.0
C C 0.5344725072513263 -0.07342232957958725 0.17520293260458647 0.0
C C 0.5356432026296204 -0.24318731740707217 0.16125874209063093 0.0
H H 0.5124120026296204 -0.3093573174070721 0.13663874209063093 0.0
C C 0.5766802510109702 -0.29014389266242746 0.2297800836266143 0.0
H H 0.5793890510109703 -0.38811389266242746 0.24136008362661432 0.0
C C 0.4288096613611486 0.1379637479483962 0.06338896523261359 0.0
H H 0.4184207613611487 0.23319374794839623 0.06616706523261356 0.0
C C 0.46322991546524306 0.0713475683222247 0.11089982335738705 0.0
H H 0.48060111546524303 0.13597756832222468 0.14707982335738706 0.0
C C 0.4869828949947692 -0.08310550672981237 0.11118266759746236 0.0
C C 0.4644661242393844 -0.09932875113784828 0.049079205057029736 0.0
H H 0.47450722423938435 -0.19429875113784825 0.04414740505702974 0.0
C C 0.42491303697391314 -0.06288964842031992 0.011817924078702578 0.0
H H 0.4070541369739132 -0.12505964842031986 -0.025173875921297422 0.0
Zn Zn 0.3205125145497914 -0.3124768203953325 -0.8619150159263477 0.0
Zn Zn 0.32639944464532056 0.10955933556752792 -1.057394593774828 0.0
O O 0.2636654247352364 -0.15421183463996943 -0.7923941703680396 0.0
O O 0.3271672375438325 -0.1273303076494874 -0.9108692801257253 0.0
O O 0.2890461829534392 0.08841771696201248 -0.9586985970136898 0.0
O O 0.194646290685781 0.2011178979575493 -0.9017539301350256 0.0
O O 0.13631703551483595 0.06065081104265896 -0.9562280199634858 0.0
O O 0.17847098086973814 0.06535335924067379 -0.7580017407211327 0.0
O O 0.12337697012909886 -0.10774440117104053 -0.7336738166840423 0.0
O O 0.18782585035907806 -0.4608349446540572 -0.8707390886617198 0.0
O O 0.2609386975147265 -0.36287460066218574 -0.8680705181015836 0.0
N N 0.39040646751471714 -0.17404792392645654 -0.7630061903023763 0.0
N N 0.5970680816841286 0.07587223651763575 -0.501173277637948 0.0
C C 0.2587756170852906 -0.034265844700150115 -0.853093294289185 0.0
H H 0.26331461708529064 0.05325415529984992 -0.8203918942891851 0.0
C C 0.20857993422104276 -0.017272450966909658 -0.8984921274907827 0.0
H H 0.20823893422104275 -0.07434245096690961 -0.9471907274907826 0.0
C C 0.1734199051956469 -0.12100577883104643 -0.8405473067768583 0.0
H H 0.1447489051956469 -0.17377577883104642 -0.8691059067768583 0.0
C C 0.22076285664595013 -0.23563794812576508 -0.8122874635390198 0.0
H H 0.21767185664595015 -0.2692179481257651 -0.7585360635390196 0.0
C C 0.29457925714046723 -0.025020127538893756 -0.9298219318710401 0.0
C C 0.17725492337478252 0.08761698522772537 -0.9311325288218478 0.0
C C 0.1658773860499576 -0.058427495548610084 -0.7624429190382938 0.0
C C 0.22010543487897458 -0.3712668372168569 -0.8591554739026922 0.0
C C 0.3829178232788963 -0.06392705011531472 -0.7603995310400663 0.0
H H 0.35846892327889623 -0.0008970501153146882 -0.7846177310400664 0.0
C C 0.43150925418285274 0.03814272620338755 -0.6875043696510741 0.0
H H 0.4334204541828528 0.13697272620338752 -0.6781624696510742 0.0
C C 0.47260168403113706 -0.08975131610658285 -0.6541158736497373 0.0
C C 0.4610485917411921 -0.23050644852384955 -0.6876303976123697 0.0
H H 0.48427979174119207 -0.2966764485238495 -0.6630103976123696 0.0
C C 0.4145917298824207 -0.27315485985127413 -0.7290253918394929 0.0
H H 0.4118829298824207 -0.37112485985127414 -0.7406053918394928 0.0
C C 0.5712856999531251 0.1455030265501263 -0.5679257928938178 0.0
H H 0.5816745999531251 0.24073302655012635 -0.5707038928938178 0.0
C C 0.5394257760003288 0.10574835168300735 -0.6144248856388894 0.0
H H 0.5220545760003289 0.17037835168300733 -0.6506048856388894 0.0
C C 0.5172468169604115 -0.06030365105366413 -0.5998679945284512 0.0
C C 0.5555933375781066 -0.11192182616138611 -0.5519553112576939 0.0
H H 0.5455522375781067 -0.20689182616138607 -0.5470235112576941 0.0
C C 0.5906835534571214 -0.08594716488186722 -0.49216082678593887 0.0
H H 0.6085424534571213 -0.14811716488186719 -0.4551690267859389 0.0
