_cell_length_a 27.1013
_cell_length_b 9.27321
_cell_length_c 16.979215
_cell_angle_alpha 90.0
_cell_angle_beta 99.1565
_cell_angle_gamma 90.0
_symmetry_space_group_name_H-M         'P 1'
_symmetry_Int_Tables_number            1
loop_
_symmetry_equiv_pos_as_xyz
   'x, y, z'
                         
loop_
_atom_site_label
_atom_site_type_symbol
_atom_site_fract_x 
_atom_site_fract_y
_atom_site_fract_z
_atom_site_charge
Zn Zn -0.17725878292963893 0.7796439564444757 -0.33484636760508313 0.0
Zn Zn -0.178104472624857 0.3589621523209234 -0.5408624659540628 0.0
O O -0.2369347991086863 0.6523276653287042 -0.30390252370902304 0.0
O O -0.18086473290997496 0.6160021117811633 -0.4322818701787305 0.0
O O -0.19185869651244603 0.3933100362375875 -0.4548653447959253 0.0
O O -0.30012853590038063 0.2817442569592654 -0.4023467684921899 0.0
O O -0.35747855848786336 0.4254340429196469 -0.46416212236195253 0.0
O O -0.32317965889208106 0.42301517776785463 -0.2618257726017307 0.0
O O -0.3759778852327107 0.6102109508333152 -0.23563816893607004 0.0
O O -0.3293800883844691 0.9396049959222211 -0.3828282696566683 0.0
O O -0.24425450711674157 0.8756873023921184 -0.41044686583256257 0.0
N N -0.1002053939427371 0.701974236853089 -0.2550521585443022 0.0
N N 0.10208131778513141 0.46632091159426553 0.005797627258959994 0.0
C C -0.22921579774005968 0.519502998583008 -0.3720077371759099 0.0
H H -0.22467679774005972 0.431982998583008 -0.3393063371759099 0.0
C C -0.2830040191981116 0.5175036777653996 -0.40262247083627567 0.0
H H -0.28334501919811156 0.5745736777653997 -0.45132107083627565 0.0
C C -0.3151265481500072 0.6573280059949546 -0.34072638165878244 0.0
H H -0.3437975481500072 0.7100980059949544 -0.36928498165878243 0.0
C C -0.2790204262668494 0.7219892017159544 -0.3177151787638154 0.0
H H -0.28211142626684943 0.7555692017159547 -0.2639637787638154 0.0
C C -0.20715426722240185 0.5269997617452292 -0.4291219290486364 0.0
C C -0.3259330686440976 0.40159851656242634 -0.41608646785346426 0.0
C C -0.3350703155491268 0.5368866732639063 -0.2774403085982647 0.0
C C -0.28230332994840224 0.8923524841421379 -0.36226229561740425 0.0
C C -0.11701856940584139 0.563157197280216 -0.2565022479624478 0.0
H H -0.14146746940584137 0.5001271972802159 -0.2807204479624478 0.0
C C -0.0637609700689218 0.5039624165464928 -0.1882525292909556 0.0
H H -0.06184977006892179 0.4051324165464928 -0.17891062929095564 0.0
C C -0.03162941918616677 0.5610861876338538 -0.17964016110266798 0.0
C C -0.03408462730812868 0.7569232539137646 -0.1831317893994037 0.0
H H -0.010853427308128681 0.8230932539137645 -0.15851178939940366 0.0
C C -0.07645514895672843 0.7841887567459673 -0.2360567461847508 0.0
H H -0.07916394895672844 0.8821587567459674 -0.24763674618475082 0.0
C C 0.06590721721532825 0.35233089077416047 -0.06014922803057497 0.0
H H 0.07629611721532825 0.25710089077416043 -0.06292732803057496 0.0
C C 0.02060362629409099 0.3846119818375306 -0.0994399492331995 0.0
H H 0.0032324262940909847 0.3199819818375306 -0.1356199492331995 0.0
C C 0.0189123801125127 0.5018494202473295 -0.0957573399150156 0.0
C C 0.04936846110439628 0.6428516559073996 -0.07372305177375116 0.0
H H 0.03932736110439628 0.7378216559073996 -0.06879125177375116 0.0
C C 0.09187479746682925 0.606123431473189 -0.005738346248642399 0.0
H H 0.10973369746682925 0.668293431473189 0.0312534537513576 0.0
Zn Zn 0.17319802382281063 0.8166817715353101 0.8367465571821087 0.0
Zn Zn 0.18615304185221646 0.39339800198633756 1.0650314546357336 0.0
O O 0.22400007257039847 0.622735126151207 0.8257513012501625 0.0
O O 0.17081496937112337 0.5899992081229417 0.9124526145762553 0.0
O O 0.21030560884519559 0.3977028687681424 0.9657378629887607 0.0
O O 0.28590332440742794 0.28977237798771915 0.9159970450466637 0.0
O O 0.37880037031185326 0.3940014655749885 0.9630735660222871 0.0
O O 0.32148999959059965 0.4288437507869258 0.7617626921728432 0.0
O O 0.3719325052449687 0.6452786665450929 0.7304749460732312 0.0
O O 0.3266730183843215 0.9299942678576973 0.8961577190240744 0.0
O O 0.23521114401984075 0.8860994964932556 0.8880721245210629 0.0
N N 0.11174282903000814 0.7181193941516101 0.7631830441857738 0.0
N N -0.10402968812146775 0.45388208264690666 0.49995888046009507 0.0
C C 0.23716939277705082 0.5309864581415342 0.8554340487111388 0.0
H H 0.2326303927770508 0.44346645814153424 0.8227326487111388 0.0
C C 0.2938645729060282 0.5186465800494967 0.889732052138296 0.0
H H 0.29420557290602817 0.5757165800494967 0.938430652138296 0.0
C C 0.3230256478100763 0.6455720294778979 0.8491253001634472 0.0
H H 0.3516966478100763 0.6983420294778979 0.8776839001634472 0.0
C C 0.27731198622886105 0.7496692806380836 0.8083403153369676 0.0
H H 0.28040298622886106 0.7832492806380836 0.7545889153369675 0.0
C C 0.2008582009208963 0.5338376742017207 0.9326457054146616 0.0
C C 0.3284909108464755 0.428231429972511 0.9139567698150068 0.0
C C 0.3381403802125551 0.5587396516435195 0.7499521280544318 0.0
C C 0.2737435931425928 0.865724105341085 0.8813135011446842 0.0
C C 0.11144235973155303 0.5338302817742063 0.7323617072491679 0.0
H H 0.13589125973155303 0.4708002817742063 0.756579907249168 0.0
C C 0.07113992633781573 0.49931741014688114 0.688190353266085 0.0
H H 0.06922872633781572 0.4004874101468811 0.678848453266085 0.0
C C 0.026699800061070703 0.5375835200285337 0.6560225781180246 0.0
C C 0.049956434667772644 0.7254840001149426 0.674557965407094 0.0
H H 0.02672523466777265 0.7916540001149426 0.6499379654070939 0.0
C C 0.08429209828621304 0.776690181122684 0.7102087184575205 0.0
H H 0.08700089828621303 0.8746601811226841 0.7217887184575205 0.0
C C -0.07324355870974779 0.32628493811844383 0.5818880818991983 0.0
H H -0.0836324587097478 0.2310549381184438 0.5846661818991983 0.0
C C -0.03325718724031824 0.41597094304824156 0.5937869089065922 0.0
H H -0.015885987240318235 0.3513409430482416 0.6299669089065923 0.0
C C -0.003922216533815543 0.5200886499802617 0.6161655701548472 0.0
C C -0.0415369815402285 0.6116850670567634 0.5496223905768599 0.0
H H -0.031495881540228504 0.7066550670567634 0.5446905905768601 0.0
C C -0.09510007053869318 0.5936770537878193 0.4870584965789886 0.0
H H -0.11295897053869318 0.6558470537878193 0.45006669657898873 0.0
Zn Zn 0.32268436482582785 1.2928705951031991 -0.3435451105225343 0.0
Zn Zn 0.3278641954266939 0.8853914689277353 -0.5560260666787611 0.0
O O 0.2639428718252794 1.1581589505989167 -0.31257855717680133 0.0
O O 0.32815103323610467 1.1473165100684957 -0.4292506653247242 0.0
O O 0.28627083113623325 0.9093995797658627 -0.4463458251801879 0.0
O O 0.19723928700332202 0.7583194483822231 -0.3993365729079683 0.0
O O 0.1299006466212332 0.9125711403240852 -0.46414041380136134 0.0
O O 0.1823124701294325 0.9256240281867673 -0.25499588524447975 0.0
O O 0.14455106810512197 1.1058480432944204 -0.2161736885999482 0.0
O O 0.18295939968978472 1.443827309812343 -0.3616758994123647 0.0
O O 0.2650432566645158 1.405750404944811 -0.3945407119614172 0.0
N N 0.3923334573369679 1.1691926978541505 -0.27430886894043516 0.0
N N 0.5963260310775422 0.9387565135858663 -0.01355347092821119 0.0
C C 0.26467828298789065 1.0265624586812097 -0.3563078933577469 0.0
H H 0.2692172829878906 0.9390424586812094 -0.3236064933577469 0.0
C C 0.21135148823555222 1.0235166923373114 -0.3826231182876014 0.0
H H 0.21101048823555224 1.0805866923373113 -0.43132171828760146 0.0
C C 0.17562675060646443 1.137138594898656 -0.33872796389170345 0.0
H H 0.1469557506064644 1.1899085948986565 -0.3672865638917034 0.0
C C 0.21433488847130813 1.2310086873377704 -0.3074434343445613 0.0
H H 0.2112438884713081 1.2645886873377703 -0.2536920343445613 0.0
C C 0.28475403443794506 1.030523195328713 -0.41694295125975184 0.0
C C 0.17606246420152194 0.9000389182132824 -0.41971741425384246 0.0
C C 0.16028902356835423 1.0617513407393848 -0.25520189143323446 0.0
C C 0.2145316771010452 1.392523475019564 -0.3621387122729863 0.0
C C 0.4046663779265589 1.0139495347323872 -0.25580284647641427 0.0
H H 0.38021747792655897 0.9509195347323871 -0.2800210464764143 0.0
C C 0.426807459280555 0.9853690039387203 -0.22291146982064566 0.0
H H 0.428718659280555 0.8865390039387203 -0.21356956982064568 0.0
C C 0.47266172695625897 1.0926819037863134 -0.1374768142949261 0.0
C C 0.4597800657181093 1.2218460113201395 -0.15464647386932973 0.0
H H 0.4830112657181092 1.2880160113201395 -0.13002647386932972 0.0
C C 0.42949551804143393 1.3020919801575357 -0.230750103388707 0.0
H H 0.42678671804143387 1.4000619801575358 -0.242330103388707 0.0
C C 0.5809668243295442 0.8574465022204164 -0.057073906823492226 0.0
H H 0.5913557243295442 0.7622165022204165 -0.05985200682349222 0.0
C C 0.5282130050158811 0.8943870710089656 -0.10053863433589123 0.0
H H 0.5108418050158812 0.8297570710089657 -0.13671863433589124 0.0
C C 0.5099636302981005 1.0387151127574439 -0.10165176903690461 0.0
C C 0.5370259003684958 1.141521198888202 -0.04913160270630057 0.0
H H 0.5269848003684959 1.2364911988882017 -0.04419980270630058 0.0
C C 0.5828121913950431 1.0725946386590162 0.010355049272376227 0.0
H H 0.6006710913950434 1.134764638659016 0.04734684927237622 0.0
Zn Zn 0.6751816546364029 1.2969349263266892 0.857289985533088 0.0
Zn Zn 0.6793854251728209 0.908399349183398 1.0531935652437776 0.0
O O 0.7359979643796228 1.16463531287211 0.8190188213833032 0.0
O O 0.6715647278114688 1.188252656792862 0.9170714320278888 0.0
O O 0.7213267820776078 0.9129161493415825 0.9748881467135857 0.0
O O 0.8086762249611991 0.7821587117734612 0.915386678374088 0.0
O O 0.8712864720550362 0.9343958890184776 0.966880895905958 0.0
O O 0.8187118945813487 0.9358426214685398 0.7686209326716624 0.0
O O 0.8693511158094229 1.1222541172446474 0.7456417459497071 0.0
O O 0.80750002457275 1.4497994897420494 0.8696314094496065 0.0
O O 0.7319905925853556 1.3895029619896984 0.8970920090150528 0.0
N N 0.6056105883371948 1.2027419319249326 0.7646435253286654 0.0
N N 0.4114436599596898 0.9429512784518953 0.5099983195548459 0.0
C C 0.7384998937096754 1.0352225133850352 0.8555859131588623 0.0
H H 0.7339608937096754 0.9477025133850352 0.8228845131588624 0.0
C C 0.7925682104416737 1.0493396423874066 0.9026128832423062 0.0
H H 0.7929092104416735 1.1064096423874066 0.9513114832423062 0.0
C C 0.8153691000923933 1.1684112369591717 0.8333530257786924 0.0
H H 0.8440401000923934 1.221181236959172 0.8619116257786924 0.0
C C 0.780520613096073 1.2309452920277084 0.81708009966133 0.0
H H 0.783611613096073 1.2645252920277086 0.7633286996613298 0.0
C C 0.7079129499679746 1.0266331644657924 0.9321608456681901 0.0
C C 0.8230452273329796 0.8970985593155757 0.9300797747330792 0.0
C C 0.8364693413065071 1.0647526419382276 0.7656556999501204 0.0
C C 0.781050906305406 1.3639846793195627 0.8719301777411894 0.0
C C 0.6245214605315531 1.0744789031746096 0.7517263766454734 0.0
H H 0.6489703605315532 1.0114489031746094 0.7759445766454733 0.0
C C 0.5669474630663143 0.9926099968138913 0.6882469957609479 0.0
H H 0.5650362630663142 0.8937799968138913 0.6789050957609479 0.0
C C 0.5411464894436596 1.1044797731194893 0.6534568097576378 0.0
C C 0.539115634908359 1.235140421755798 0.6531998052771193 0.0
H H 0.515884434908359 1.3013104217557978 0.6285798052771192 0.0
C C 0.5762704642276313 1.2806545642697578 0.7272326370438651 0.0
H H 0.5789792642276312 1.3786245642697579 0.738812637043865 0.0
C C 0.420651856439759 0.81120924725996 0.5477025204807415 0.0
H H 0.41026295643975896 0.71597924725996 0.5504806204807415 0.0
C C 0.46067156830408124 0.8896768443975613 0.6165895739812168 0.0
H H 0.4780427683040812 0.8250468443975613 0.6527695739812169 0.0
C C 0.48851944087207694 1.0664619805468554 0.6011260105674582 0.0
C C 0.4486124055288088 1.0898757016632705 0.545131412192499 0.0
H H 0.4586535055288088 1.1848457016632703 0.5401996121924992 0.0
C C 0.4222206122759662 1.0916120830330374 0.49715578977808134 0.0
H H 0.4043617122759662 1.1537820830330372 0.4601639897780815 0.0
Zn Zn 0.17763555355505595 -0.7810466831662936 0.35013941652878516 0.0
Zn Zn 0.16882348056025315 -0.3810629617894679 0.558845448768386 0.0
O O 0.23146206004970868 -0.6815106270154921 0.32724170533740354 0.0
O O 0.18144892801872864 -0.6621061434943993 0.42470383996578354 0.0
O O 0.20762337884770898 -0.41836465175716814 0.45955204752320306 0.0
O O 0.30364783520984323 -0.27217760194998797 0.40672351202285534 0.0
O O 0.3782474034913123 -0.42960104979880853 0.4497527083549221 0.0
O O 0.32460893620403175 -0.43316858770614025 0.23571398495340684 0.0
O O 0.34838765180776765 -0.6526782919678601 0.2066838994620202 0.0
O O 0.32786136936077315 -0.954111531533994 0.37344036403683667 0.0
O O 0.2556652278770792 -0.9140208301527337 0.41612529902813833 0.0
N N 0.10480534919751339 -0.7193773377832221 0.2755084173772358 0.0
N N -0.09488186514116613 -0.45770415250438423 0.028898962613523763 0.0
C C 0.24373458461739192 -0.5128048912286776 0.3530397237224002 0.0
H H 0.23919558461739193 -0.4252848912286775 0.32033832372240023 0.0
C C 0.2976115179040116 -0.5593246308994094 0.38033583276238914 0.0
H H 0.2979525179040116 -0.6163946308994095 0.4290344327623891 0.0
C C 0.3179441069457909 -0.6217347084416499 0.3496127933987623 0.0
H H 0.3466151069457909 -0.6745047084416499 0.37817139339876227 0.0
C C 0.2859214797026496 -0.7364671546707717 0.3287957508482865 0.0
H H 0.2890124797026496 -0.7700471546707719 0.27504435084828655 0.0
C C 0.19928338952132238 -0.5077351158030212 0.4307166964083191 0.0
C C 0.3190244266593125 -0.4053961182706745 0.414711705233285 0.0
C C 0.3307432862859496 -0.5585973162676763 0.26584990233666994 0.0
C C 0.28015089980612556 -0.8691056860790596 0.3843681667104764 0.0
C C 0.10243433341885849 -0.578230691329081 0.24929394009539455 0.0
H H 0.1268832334188585 -0.515200691329081 0.27351214009539454 0.0
C C 0.07568685054022892 -0.4677375063749824 0.1846509268232382 0.0
H H 0.07377565054022893 -0.3689075063749824 0.1753090268232382 0.0
C C 0.030768863791298933 -0.6194750138512967 0.1591072891596151 0.0
C C 0.03514494304111109 -0.7808855836097983 0.18389928799803051 0.0
H H 0.011913743041111095 -0.8470555836097983 0.15927928799803048 0.0
C C 0.06639555441921721 -0.7999818383752197 0.24175112010410046 0.0
H H 0.06910435441921721 -0.8979518383752197 0.2533311201041004 0.0
C C -0.0741084926283904 -0.36606385000341046 0.06969179832852088 0.0
H H -0.0844973926283904 -0.2708338500034104 0.07246989832852087 0.0
C C -0.027952565710311662 -0.35935472685408326 0.10919787497610196 0.0
H H -0.010581365710311654 -0.2947247268540833 0.14537787497610197 0.0
C C -0.019062528061968793 -0.5089807090880166 0.11449705833311759 0.0
C C -0.046831964440202475 -0.6361563974592097 0.049335822460079885 0.0
H H -0.03679086444020248 -0.7311263974592097 0.04440402246007989 0.0
C C -0.08204087745504916 -0.5545507964630402 0.021684736597992305 0.0
H H -0.09989977745504917 -0.6167207964630401 -0.015307063402007697 0.0
Zn Zn -0.17307911199363654 -0.797253671720358 -0.8492028904255601 0.0
Zn Zn -0.1653537187145994 -0.38424066025162756 -1.0458563838918697 0.0
O O -0.23457910991082548 -0.6444772038599411 -0.8033674336016366 0.0
O O -0.17364101019734315 -0.6028750086069582 -0.9153953877197398 0.0
O O -0.19920852602610434 -0.44614535015941814 -0.9483306450085528 0.0
O O -0.30550050190508354 -0.2926110545827821 -0.8981399664396841 0.0
O O -0.3710802605510111 -0.4321859225249338 -0.9653624453579582 0.0
O O -0.32636352747906633 -0.4087854445631513 -0.7614239787613749 0.0
O O -0.34968552316897933 -0.6224387611153999 -0.7493738157786889 0.0
O O -0.3079849954517831 -0.9286283488337915 -0.869816081258351 0.0
O O -0.2408593251546073 -0.9123274672963826 -0.9049785855829479 0.0
N N -0.10405015508745583 -0.6798669942858733 -0.7584284596300963 0.0
N N 0.0958674943250678 -0.4136803658379312 -0.48808196374177754 0.0
C C -0.2315790357913845 -0.5344483918879827 -0.8535781688618256 0.0
H H -0.2270400357913845 -0.4469283918879826 -0.8208767688618256 0.0
C C -0.29440514017234687 -0.5172193417165212 -0.8984108496013345 0.0
H H -0.29474614017234685 -0.5742893417165211 -0.9471094496013346 0.0
C C -0.3109253392506398 -0.6371955100740498 -0.8291944517682159 0.0
H H -0.33959633925063976 -0.6899655100740497 -0.8577530517682158 0.0
C C -0.28911637302254567 -0.727444835301499 -0.8076907290221632 0.0
H H -0.29220737302254574 -0.761024835301499 -0.753939329022163 0.0
C C -0.19533202794356894 -0.550149196154631 -0.9034493080048617 0.0
C C -0.3256455308893623 -0.39852035491229665 -0.9412254437580723 0.0
C C -0.33685416201894236 -0.5629985872065283 -0.7621765241419365 0.0
C C -0.2847295000579719 -0.887182421153908 -0.8554034717977276 0.0
C C -0.10327790923156427 -0.5362192885922352 -0.7231355898363354 0.0
H H -0.12772680923156426 -0.4731892885922352 -0.7473537898363355 0.0
C C -0.06156576118379879 -0.5077603513847315 -0.6847576181762245 0.0
H H -0.0596545611837988 -0.40893035138473155 -0.6754157181762245 0.0
C C -0.027783550969398746 -0.6009128452936264 -0.6669482793483299 0.0
C C -0.029337946247887 -0.71912061583546 -0.7031296417322991 0.0
H H -0.0061067462478870075 -0.78529061583546 -0.678509641732299 0.0
C C -0.07895878689646153 -0.7827825591916978 -0.7383177935742599 0.0
H H -0.08166758689646152 -0.8807525591916979 -0.7498977935742598 0.0
C C 0.07982387769893017 -0.36072250222934715 -0.5528905896472378 0.0
H H 0.09021277769893021 -0.26549250222934717 -0.5556686896472378 0.0
C C 0.03355680599085789 -0.4041183359144407 -0.5876856619606216 0.0
H H 0.01618560599085789 -0.3394883359144407 -0.6238656619606215 0.0
C C 0.0253125615717252 -0.5235548051973132 -0.5979155341782239 0.0
C C 0.049054289009163886 -0.6226422554878008 -0.5338723928751893 0.0
H H 0.03901318900916389 -0.7176122554878009 -0.5289405928751895 0.0
C C 0.08152290527727549 -0.5472465549046789 -0.48576689716675164 0.0
H H 0.0993818052772755 -0.6094165549046788 -0.4487750971667517 0.0
Zn Zn 0.6765807981110243 -0.27561077187912597 0.3212819885011934 0.0
Zn Zn 0.6779632576452241 0.09418973640168302 0.5573412266454548 0.0
O O 0.7372520125365223 -0.15747768725627143 0.30494245965154404 0.0
O O 0.6835540911532287 -0.14852752450865586 0.431124409767661 0.0
O O 0.7036208410769126 0.07460345849681554 0.4391865357210825 0.0
O O 0.8190729193557759 0.2198330882726436 0.4149702243633158 0.0
O O 0.8659178870739139 0.09860952918158371 0.45476850290750137 0.0
O O 0.8211654230023145 0.07941615198381467 0.2575107208253625 0.0
O O 0.8484979172438993 -0.148570656900375 0.22672560855433255 0.0
O O 0.827778278295853 -0.43584506612997087 0.38912524397931875 0.0
O O 0.7371065319100522 -0.3885917921379362 0.4064869358160446 0.0
N N 0.6116391026409524 -0.20584596985545167 0.25753283879740557 0.0
N N 0.39788376468478903 0.06345613391416557 -0.010512753993361235 0.0
C C 0.7481308806530464 -0.014309058744341312 0.37004055783711204 0.0
H H 0.7435918806530464 0.07321094125565873 0.33733915783711205 0.0
C C 0.805613038711325 -0.050662451239000074 0.4011457658393913 0.0
H H 0.8059540387113249 -0.10773245123900003 0.4498443658393913 0.0
C C 0.8249701802718232 -0.16334062064133942 0.33894143541474275 0.0
H H 0.8536411802718232 -0.21611062064133937 0.3675000354147427 0.0
C C 0.7750727241208971 -0.2516128389725398 0.31119786371146485 0.0
H H 0.7781637241208971 -0.2851928389725398 0.2574464637114649 0.0
C C 0.7118773023325986 -0.01025217689535892 0.4144539650126772 0.0
C C 0.8150436315783807 0.09951715157753392 0.4349322502820198 0.0
C C 0.8407247084348621 -0.030440277417474973 0.2627912141131338 0.0
C C 0.7834286235586687 -0.36924685108071564 0.3535026882536564 0.0
C C 0.6037885435681056 -0.05509753669649928 0.24986476273904065 0.0
H H 0.6282374435681055 0.007932463303500746 0.27408296273904065 0.0
C C 0.5640324805469242 -0.0031650482958752424 0.20878363443349002 0.0
H H 0.5621212805469241 0.09566495170412473 0.19944173443349006 0.0
C C 0.5234237583360263 -0.0917897868072817 0.16953525897730573 0.0
C C 0.540481171970476 -0.24492559184386695 0.1972716127612332 0.0
H H 0.5172499719704761 -0.31109559184386687 0.1726516127612332 0.0
C C 0.57334161188016 -0.2827857001733786 0.21534334933685914 0.0
H H 0.57605041188016 -0.3807557001733786 0.22692334933685915 0.0
C C 0.422145567841069 0.15350719087093367 0.05939578224478802 0.0
H H 0.411756667841069 0.24873719087093374 0.06217388224478802 0.0
C C 0.46994562882526125 0.11041806269754327 0.11739009769025055 0.0
H H 0.4873168288252613 0.17504806269754322 0.15357009769025054 0.0
C C 0.4808638705393133 -0.04668230771465235 0.11435852083621063 0.0
C C 0.46288934460726183 -0.11036296389652016 0.055741424143250395 0.0
H H 0.4729304446072618 -0.20533296389652014 0.0508096241432504 0.0
C C 0.41703608888089866 -0.08861908894901377 0.007111284490176921 0.0
H H 0.39917718888089865 -0.1507890889490137 -0.02988051550982308 0.0
Zn Zn 0.3374983158026873 -0.3023089242016308 -0.8450848888416008 0.0
Zn Zn 0.33442316214097345 0.1051351295799196 -1.047642528702862 0.0
O O 0.2665319837952023 -0.1395619152705079 -0.8053190954356837 0.0
O O 0.3196195412273932 -0.1351368262077633 -0.9142768897352137 0.0
O O 0.291584694752693 0.08753132368954208 -0.9659742431466719 0.0
O O 0.20644929066953074 0.20151646182829358 -0.9093602943248819 0.0
O O 0.13115113795208846 0.0689496315929878 -0.9675672631301254 0.0
O O 0.18293333934602593 0.08654169245316243 -0.7473874841545322 0.0
O O 0.1378135121547803 -0.0957840753194532 -0.7298664095433013 0.0
O O 0.1779535408891102 -0.4333889218267762 -0.8602028114565624 0.0
O O 0.2629821849029553 -0.40436502709882327 -0.8908268405953506 0.0
N N 0.3821917941562127 -0.21738854114844677 -0.7738172515483225 0.0
N N 0.6016840213990567 0.07935974652619347 -0.49633686085102896 0.0
C C 0.2572118551488844 -0.02915773500891785 -0.8500666596194166 0.0
H H 0.2617508551488844 0.05836226499108218 -0.8173652596194166 0.0
C C 0.1996626379099518 -0.03195040261657883 -0.9018995045639625 0.0
H H 0.1993216379099518 -0.08902040261657877 -0.9505981045639625 0.0
C C 0.16574643283144017 -0.1499126019661073 -0.8346145710608494 0.0
H H 0.13707543283144014 -0.2026826019661073 -0.8631731710608493 0.0
C C 0.22283809435934762 -0.24879827281858194 -0.7984542087504397 0.0
H H 0.21974709435934764 -0.28237827281858197 -0.7447028087504396 0.0
C C 0.30148687507563066 -0.04583537679987502 -0.9153894411431942 0.0
C C 0.1785002212333688 0.09714893181803128 -0.920046230301162 0.0
C C 0.16541761610300182 -0.045956752707361555 -0.7747107816820257 0.0
C C 0.2143506479754315 -0.3829189083515314 -0.865727609712887 0.0
C C 0.39053846282707766 -0.0343856732861738 -0.7398460517010836 0.0
H H 0.36608956282707766 0.028644326713826225 -0.7640642517010836 0.0
C C 0.42057302282490355 0.016759351768958968 -0.6857694394098626 0.0
H H 0.4224842228249036 0.11558935176895893 -0.6764275394098627 0.0
C C 0.4650685459586873 -0.07906475086544962 -0.6765101898137168 0.0
C C 0.47267812670972364 -0.22017673196132675 -0.6604214423108881 0.0
H H 0.4959093267097236 -0.28634673196132676 -0.635801442310888 0.0
C C 0.4232024090638829 -0.3129960043208882 -0.7357919538557681 0.0
H H 0.4204936090638829 -0.4109660043208882 -0.7473719538557682 0.0
C C 0.5709243102994941 0.16348084988813236 -0.5515254418132336 0.0
H H 0.581313210299494 0.25871084988813237 -0.5543035418132336 0.0
C C 0.514031376689375 0.05387446958890329 -0.6199698188823161 0.0
H H 0.4966601766893751 0.11850446958890327 -0.656149818882316 0.0
C C 0.523586360236567 -0.041034015618814805 -0.5993811214587033 0.0
C C 0.5500741554996891 -0.12541532811562245 -0.5434561407355353 0.0
H H 0.5400330554996892 -0.22038532811562242 -0.5385243407355355 0.0
C C 0.5829463242805022 -0.08036730068495512 -0.5264774739179432 0.0
H H 0.6008052242805022 -0.1425373006849551 -0.4894856739179433 0.0
