_cell_length_a 12.935
_cell_length_b 23.242012
_cell_length_c 12.93505
_cell_angle_alpha 90.0
_cell_angle_beta 90.0
_cell_angle_gamma 90.0
_symmetry_space_group_name_H-M         'P 1'
_symmetry_Int_Tables_number            1
loop_
_symmetry_equiv_pos_as_xyz
   'x, y, z'
                         
loop_
_atom_site_label
_atom_site_type_symbol
_atom_site_fract_x 
_atom_site_fract_y
_atom_site_fract_z
_atom_site_charge
C C 0.4488923033898336 1.1822384484106843 0.6168814727771968 0.0
C C 0.4157473450602638 1.184020027602385 0.5831408702826701 0.0
C C 0.36726687927704377 1.1388318810239348 0.5669411544403895 0.0
H H 0.4006168792770438 1.1024018810239349 0.5643911544403896 0.0
C C 0.28364335285726744 1.1623933881490167 0.6689009157866485 0.0
C C 0.1725219720353326 1.1891468925608626 0.6917050159930996 0.0
C C 0.2800278799236968 1.3025781655700235 0.6985503076720581 0.0
H H 0.24977787992369685 1.3397481655700234 0.7010103076720581 0.0
C C 0.3642454553942111 1.2375088612778162 0.6255671124023497 0.0
H H 0.409495455394211 1.2695788612778163 0.6242171124023498 0.0
C C 0.18116756141708126 1.114614282963157 0.5912271385344531 0.0
H H 0.20750756141708118 1.0767842829631569 0.5831671385344531 0.0
C C 0.04731845356517454 1.1347080221698151 0.5973205449677641 0.0
H H 0.004768453565174562 1.1018680221698152 0.608070544967764 0.0
C C 0.05817406627396974 1.1716821027836917 0.629603845783366 0.0
C C 0.12293990159353992 1.222030804469937 0.6419581256542791 0.0
H H 0.09548990159353994 1.2599008044699371 0.6397081256542789 0.0
C C 0.7741685213394298 1.2083990195017351 0.4092369620063163 0.0
C C 0.673332741117354 1.1777698424953476 0.8837141554381522 0.0
C C 0.7095090216076603 1.2050677056923222 0.8880543825942915 0.0
C C 0.7351430380017322 1.1883046764180927 0.9818457915781661 0.0
H H 0.736593038001732 1.1504746764180926 0.9538957915781662 0.0
C C 0.7523434356345955 1.1312707018123915 1.068908406196588 0.0
C C 0.7139505195902771 1.2191499136624946 1.1926462941324565 0.0
C C 0.7033364680864923 1.2758201578416728 1.1336087928259204 0.0
H H 0.7215864680864924 1.3124001578416729 1.1604587928259205 0.0
C C 0.7081766762140534 1.257211121154271 1.0628755400987537 0.0
H H 0.6809266762140536 1.290081121154271 1.0288255400987538 0.0
C C 0.7640487596358547 1.0772536190277997 1.2490676122205013 0.0
H H 0.7760887596358547 1.0409236190277997 1.2176176122205011 0.0
C C 0.7694223851756778 1.0990517385936944 1.2938245498728345 0.0
H H 0.7676523851756778 1.0653217385936944 1.3353645498728346 0.0
C C 0.7345288306478102 1.1825539883041793 1.344942136931779 0.0
C C 0.752798833225476 1.2196155999037563 1.2575266057792123 0.0
H H 0.766548833225476 1.2556855999037564 1.2891866057792123 0.0
C C 0.9342698406893579 1.1827375680742278 0.7498862977511336 0.0
C C 0.8111380467983275 1.0167376533904022 0.8089642955891164 0.0
H H 0.8353780467983273 1.0467076533904023 0.8525042955891164 0.0
C C 0.8004566142185643 0.9512042205741414 0.8153821771711246 0.0
H H 0.8203866142185643 0.9428642205741413 0.8844221771711246 0.0
C C 0.7428890174762874 0.9337294099340548 0.7520768015825884 0.0
H H 0.7657290174762875 0.8955994099340548 0.7650168015825883 0.0
C C 0.6831413513760151 0.9493263706376444 0.6489616801946149 0.0
C C 0.7056777921143778 0.9892807514384492 0.6331780556917814 0.0
C C 0.6296465928107923 1.001992140880857 0.5624445180005541 0.0
H H 0.6081965928107924 1.040562140880857 0.551084518000554 0.0
C C 0.5862191103652657 0.9963448788616908 0.4426699288061018 0.0
H H 0.559849110365266 1.0093048788616907 0.3780999288061017 0.0
C C 0.5195229758371972 0.9386531391232019 0.4888463623816921 0.0
H H 0.4872529758371971 0.9104131391232018 0.4463863623816921 0.0
C C 0.6065217685631237 0.9055785699573381 0.5427584586844737 0.0
C C 0.5638467752640157 0.8130540174638561 0.6025505469740909 0.0
C C 0.7647184423990537 0.8012523778424797 0.5602583015920166 0.0
C C 0.8307677870384321 0.7393133021292826 0.6448240139568183 0.0
C C 0.8207543688717227 0.7178508484725459 0.5890978643699963 0.0
H H 0.8750843688717227 0.7384008484725457 0.5563178643699963 0.0
C C 0.873828881410639 0.6793392695247341 0.6442643202244404 0.0
H H 0.943258881410639 0.6671692695247341 0.6539743202244402 0.0
C C 0.8407166759155683 0.6415576230140961 0.6267568678935447 0.0
C C 0.7068795614667164 0.6493547837906277 0.6583593579592335 0.0
C C 0.6672261834619813 0.7259412995886243 0.6258621676154602 0.0
C C 0.7075757855965197 0.7187654271231408 0.6944808185758911 0.0
C C 0.5228843342605559 0.7093685393013311 0.6415104926847621 0.0
H H 0.4552343342605559 0.7247385393013311 0.6486504926847622 0.0
C C 0.5690770048367827 0.6298601226364827 0.6992456600709275 0.0
H H 0.5162070048367827 0.6056201226364827 0.7257756600709275 0.0
C C 0.6282135519733806 0.6587839025803914 0.6552937921144043 0.0
C C 0.605788963574046 0.608527945748642 0.7006492276873484 0.0
C C 0.866836698271272 0.6110695658293318 0.6469444322802851 0.0
C C 0.7691352894213369 0.5288009362935303 0.7545744048213994 0.0
C C 0.816257315608226 0.47534336834189245 0.8352736015220271 0.0
H H 0.8256773156082259 0.5085933683418925 0.8767836015220273 0.0
C C 1.0051487033103061 0.4125852431412059 0.8950516165855142 0.0
H H 1.0448317033103063 0.4051952431412059 0.9554356165855141 0.0
C C 0.8178592999114763 0.36838420337785804 0.8229294446095076 0.0
H H 0.8041692999114762 0.32972420337785807 0.8424194446095075 0.0
C C 0.7714152111932049 0.38849678963538953 0.6398797254806038 0.0
C C 0.7228907229890572 0.43039880441754313 0.6227801597448288 0.0
C C 0.635443434432237 0.44176568064152205 0.5332663633008127 0.0
H H 0.626173434432237 0.480425680641522 0.5117963633008127 0.0
C C 0.6787241411086717 0.42638508429730904 0.4762755210333355 0.0
H H 0.6390641411086716 0.43074508429730907 0.4149155210333355 0.0
C C 0.5800156670309885 0.34781475254823657 0.6410223860974762 0.0
H H 0.5759256670309885 0.31935475254823664 0.5881423860974762 0.0
N N 0.7170046750165844 1.0358154074382888 0.7054724921337041 0.0
N N 0.6541765545112692 0.8199644015309329 0.6451879203464819 0.0
N N 0.7502229092839806 0.5592505775953844 0.7271720707282333 0.0
N N 0.7556921445919719 0.3192120136791093 0.5632081044278302 0.0
O O 0.5856590809914852 1.097558306195576 0.6190071434781959 0.0
O O 0.5836950509595901 1.2172189720081106 0.6353265693097919 0.0
O O 0.7464254464496421 1.1469654079627054 0.5012636698654268 0.0
O O 0.6623862620267065 1.240022325119159 0.49105529796912584 0.0
O O 0.6510831552175963 1.150669678492426 0.8063733540295741 0.0
O O 0.6836142622738953 1.260471248736013 0.7701326455171286 0.0
O O 0.8841724546974066 1.1661019783982238 0.6426065741517637 0.0
O O 0.8977624712341448 1.2256793750674124 0.6105472359581232 0.0
O O 0.8848588793856003 0.8314391788942581 0.583622152664443 0.0
O O 0.5155919978829085 0.8277466049104958 0.678402345049755 0.0
O O 0.9736427068960711 0.567421258028283 0.5998151755568756 0.0
O O 0.6525609492954286 0.5179731615874312 0.6969041745430234 0.0
Zn Zn 0.7302023564661274 1.2394138961566794 0.6468047481018182 0.0
Zn Zn 0.708018136493865 1.109525846573957 0.6747197615518845 0.0
C C -0.5716601633386571 1.6933148766626118 -0.6223693228402633 0.0
C C -0.3866931479003413 1.7289907747140312 -0.6219398285122246 0.0
C C -0.3504101033346801 1.6339981253930422 -0.6251638844045778 0.0
H H -0.3837601033346801 1.5975681253930423 -0.6226138844045778 0.0
C C -0.23716229563115238 1.6416072632060446 -0.6386415915080573 0.0
C C -0.16991684493344775 1.732246050258268 -0.708935352046914 0.0
C C -0.26953548828944784 1.7761083929333794 -0.631874899278642 0.0
H H -0.23928548828944782 1.8132783929333793 -0.6343348992786421 0.0
C C -0.3644242714319029 1.7536762519324587 -0.6543479134920889 0.0
H H -0.40967427143190294 1.7857462519324587 -0.6529979134920889 0.0
C C -0.18018292036550257 1.6131084767414787 -0.7573533982452011 0.0
H H -0.20652292036550254 1.575278476741479 -0.7492933982452012 0.0
C C -0.08853848352732717 1.588335952701942 -0.6246399288953599 0.0
H H -0.045988483527327186 1.555495952701942 -0.63538992889536 0.0
C C -0.023582387124663682 1.6862291579688493 -0.6085697974767752 0.0
C C -0.08510697934183921 1.7307669059535913 -0.6445830121275561 0.0
H H -0.05765697934183922 1.7686369059535911 -0.6423330121275559 0.0
C C -0.7475471862549388 1.6969108291819783 -0.5132864088758947 0.0
C C -0.7434032931992306 1.6887836511166088 -0.8907032064467091 0.0
C C -0.8276911682229589 1.7054468775658 -0.9746409436137455 0.0
C C -0.7421170729013543 1.6602691643184666 -1.0151359184736204 0.0
H H -0.7435670729013543 1.6224391643184666 -0.9871859184736204 0.0
C C -0.725471260513051 1.6790617415027589 -1.1048688083128682 0.0
C C -0.7244132958003207 1.7080071891077715 -1.1614987827974115 0.0
C C -0.753449262853055 1.7471963243730377 -1.1107489192757956 0.0
H H -0.7716992628530551 1.7837763243730378 -1.1375989192757956 0.0
C C -0.7215583934038841 1.731389885399854 -1.0507308611528807 0.0
H H -0.6943083934038841 1.7642598853998541 -1.0166808611528806 0.0
C C -0.7464320536851802 1.6235054631524064 -1.2405043703170417 0.0
H H -0.7584720536851801 1.5871754631524064 -1.2090543703170418 0.0
C C -0.7396373917319878 1.614486043059614 -1.2580218938286296 0.0
H H -0.7378673917319878 1.580756043059614 -1.2995618938286295 0.0
C C -0.7709356431691105 1.666612890604429 -1.3402263515052693 0.0
C C -0.803743662779816 1.7147919439630295 -1.2910876145098704 0.0
H H -0.8174936627798159 1.7508619439630293 -1.3227476145098704 0.0
C C -0.9444631379684244 1.6425435756163973 -0.6387325425011653 0.0
C C -0.7366798483346522 1.5132349072891194 -0.7922383283239229 0.0
H H -0.7609198483346522 1.5432049072891194 -0.835778328323923 0.0
C C -0.7637485509110796 1.4846920482895396 -0.8016864887821953 0.0
H H -0.7836785509110796 1.4763520482895396 -0.8707264887821953 0.0
C C -0.752219215118812 1.4117111286411472 -0.7599531239444133 0.0
H H -0.7750592151188122 1.3735811286411475 -0.7728931239444132 0.0
C C -0.6774237611213545 1.428202461309046 -0.6480526326215218 0.0
C C -0.741681371145221 1.4462292468028781 -0.5568444492408386 0.0
C C -0.664753442831316 1.498098903623901 -0.5486968077980057 0.0
H H -0.6433034428313164 1.5366689036239012 -0.5373368077980056 0.0
C C -0.6135946295278699 1.4615831977649671 -0.46862569292031886 0.0
H H -0.5872246295278701 1.474543197764967 -0.40405569292031884 0.0
C C -0.5178440604560901 1.404706765985508 -0.5374730567989399 0.0
H H -0.48557406045609014 1.376466765985508 -0.49501305679893987 0.0
C C -0.639227339764217 1.435074041163275 -0.5933919168947643 0.0
C C -0.5996120672460612 1.291842809896436 -0.7263642476610662 0.0
C C -0.7878272654552784 1.3006652556561193 -0.5151168931317549 0.0
C C -0.7404779778951002 1.229125750850014 -0.6163693330556145 0.0
C C -0.8702234868684279 1.214773670239171 -0.5530236154350456 0.0
H H -0.9245534868684278 1.2353236702391706 -0.5202436154350456 0.0
C C -0.923633488046878 1.0977210620837319 -0.51166530136346 0.0
H H -0.9930634880468778 1.0855510620837319 -0.5213753013634599 0.0
C C -0.7601458530821401 1.1600550670461875 -0.5998264005461823 0.0
C C -0.747010907525252 1.14659947239819 -0.6979377108289397 0.0
C C -0.6771391987759429 1.2304657012446978 -0.6337687840414138 0.0
C C -0.6027153960142325 1.2714221532361167 -0.6351606108363013 0.0
C C -0.5190114744610282 1.204352076248854 -0.6399751735730668 0.0
H H -0.4513614744610282 1.2197220762488543 -0.6471151735730668 0.0
C C -0.5105203304904387 1.1453417486594224 -0.6877924906655173 0.0
H H -0.45765033049043863 1.1211017486594224 -0.7143224906655175 0.0
C C -0.6090092311458581 1.128016706769113 -0.6530792148392308 0.0
C C -0.6192716366185859 1.0612568977857375 -0.75623958005096 0.0
C C -0.8487908803550236 1.036616110042229 -0.6853492002746533 0.0
C C -0.7310420114796016 0.9748417423743992 -0.6752840048437345 0.0
C C -0.8414979850025238 0.9807065906515096 -0.8237188440730194 0.0
H H -0.8509179850025238 1.0139565906515098 -0.8652288440730195 0.0
C C -0.9261574665019296 0.8837864322320782 -0.9123060666672713 0.0
H H -0.9658404665019297 0.8763964322320782 -0.9726900666672713 0.0
C C -0.7848028100594006 0.9244340522750324 -0.798348007687831 0.0
H H -0.7711128100594005 0.8857740522750325 -0.8178380076878309 0.0
C C -0.7929999140733608 0.8835453573995256 -0.6700887872101844 0.0
C C -0.6739029075335925 0.9293163991029553 -0.7164224987765155 0.0
C C -0.6654796371192704 0.9630482978801698 -0.5739348265354189 0.0
H H -0.6562096371192705 1.0017082978801697 -0.552464826535419 0.0
C C -0.6761765824155105 0.8833375581456027 -0.46096769968535345 0.0
H H -0.6365165824155103 0.8876975581456027 -0.3996076996853535 0.0
C C -0.6986273019275308 0.8800554557572955 -0.49560581708385504 0.0
H H -0.6945373019275306 0.8515954557572954 -0.442725817083855 0.0
N N -0.723417072018659 1.5069030730651392 -0.7315803286541364 0.0
N N -0.6935271861333122 1.3370339409805563 -0.5773089217896289 0.0
N N -0.7450038945774136 1.0620568327297786 -0.6792472065169883 0.0
N N -0.7854367705129648 0.8466833872236993 -0.5668105384215175 0.0
O O -0.6193587977551525 1.675605442597773 -0.6917806388191272 0.0
O O -0.6264253534040611 1.752469845669424 -0.636780582435305 0.0
O O -0.7600976160342218 1.6366124259797514 -0.4700186246013173 0.0
O O -0.7633949225899676 1.7367324347840383 -0.4490479865120212 0.0
O O -0.7234227246951682 1.6736326213827395 -0.8025295948022482 0.0
O O -0.7110430404268044 1.79048641302178 -0.7846255631791099 0.0
O O -0.9025401757350608 1.6840492369847595 -0.6683087540638479 0.0
O O -0.9104730257740916 1.7443328083535976 -0.6599466385045893 0.0
O O -0.7666414983217454 1.3502514217783146 -0.5670161145000852 0.0
O O -0.5691799630579151 1.3222010698639082 -0.7023237981765943 0.0
O O -0.9216840635553216 1.0804333921384266 -0.718255193428052 0.0
O O -0.4814221599778313 1.0227351423857838 -0.6691425550170264 0.0
Zn Zn -0.6979978110491701 1.749978415953659 -0.6293033632437685 0.0
Zn Zn -0.7486450657862987 1.6283700520039621 -0.6700862506186568 0.0
