_cell_length_a 12.935
_cell_length_b 23.242012
_cell_length_c 12.93505
_cell_angle_alpha 90.0
_cell_angle_beta 90.0
_cell_angle_gamma 90.0
_symmetry_space_group_name_H-M         'P 1'
_symmetry_Int_Tables_number            1
loop_
_symmetry_equiv_pos_as_xyz
   'x, y, z'
                         
loop_
_atom_site_label
_atom_site_type_symbol
_atom_site_fract_x 
_atom_site_fract_y
_atom_site_fract_z
_atom_site_charge
C C 0.5289516869423249 1.1997264682660604 0.5750514428501534 0.0
C C 0.4218717095114053 1.1778208497985931 0.6289834332359613 0.0
C C 0.34206741877838 1.1573071291496586 0.7063423913441454 0.0
H H 0.37541741877838 1.1208771291496586 0.7037923913441455 0.0
C C 0.18705921393559022 1.1858848478033779 0.6109475730340588 0.0
C C 0.22686942690813847 1.219784652772228 0.6381579035377407 0.0
C C 0.3224453128908348 1.2661362880134788 0.6496577335767861 0.0
H H 0.2921953128908348 1.3033062880134787 0.6521177335767862 0.0
C C 0.3878293721784481 1.2604110283053789 0.680906495434875 0.0
H H 0.433079372178448 1.292481028305379 0.6795564954348751 0.0
C C 0.2036617452891514 1.0976134899565946 0.6711321624142021 0.0
H H 0.23000174528915132 1.0597834899565945 0.6630721624142023 0.0
C C 0.09046780447837775 1.110968976235121 0.7127227617777109 0.0
H H 0.04791780447837778 1.078128976235121 0.7234727617777108 0.0
C C 0.023442844890839778 1.1682659835871456 0.6982987736339563 0.0
C C 0.06254311976592106 1.2188998732260696 0.6954974053203458 0.0
H H 0.03509311976592107 1.2567698732260697 0.6932474053203457 0.0
C C 0.7911889390272362 1.1732281068885702 0.46021797944252313 0.0
C C 0.6601015461770964 1.2183968796888973 0.855454526210369 0.0
C C 0.709827840227063 1.240180067878926 1.0281240434714642 0.0
C C 0.7562414886026076 1.158001223522028 1.0511563948723863 0.0
H H 0.7576914886026076 1.120171223522028 1.0232063948723864 0.0
C C 0.7332918747222634 1.1396017938676342 1.0813370677203569 0.0
C C 0.6934246108357778 1.2119539143639044 1.1893911243559603 0.0
C C 0.715570204943257 1.2585744995272319 1.07814133208533 0.0
H H 0.7338202049432571 1.295154499527232 1.10499133208533 0.0
C C 0.7100410757511837 1.261850956288038 1.005231020598147 0.0
H H 0.6827910757511837 1.2947209562880382 0.971181020598147 0.0
C C 0.8003229657008808 1.097155078481173 1.2450492163832871 0.0
H H 0.8123629657008807 1.060825078481173 1.2135992163832874 0.0
C C 0.7182724950042677 1.0988882031852778 1.2926115459172949 0.0
H H 0.7165024950042677 1.065158203185278 1.334151545917295 0.0
C C 0.7239585420774642 1.1862430809024753 1.2767803486225653 0.0
C C 0.7577116215255812 1.229153540903567 1.2836975063805844 0.0
H H 0.7714616215255812 1.265223540903567 1.3153575063805845 0.0
C C 0.9024528706222151 1.1627850972413543 0.6603395472425946 0.0
C C 0.6616219948051014 1.0097765782930181 0.766362373611038 0.0
H H 0.6858619948051013 1.0397465782930182 0.809902373611038 0.0
C C 0.7723672664823398 0.9850226405544104 0.7879781478452251 0.0
H H 0.7922972664823398 0.9766826405544102 0.8570181478452252 0.0
C C 0.7900329481337466 0.9321656171889121 0.7174460718516977 0.0
H H 0.8128729481337467 0.8940356171889121 0.7303860718516977 0.0
C C 0.7053979323959171 0.9318221725207607 0.7059553510314752 0.0
C C 0.6950881617652891 0.9880343070922557 0.5881354306108314 0.0
C C 0.6331180406501825 1.0075161008312878 0.550096181380062 0.0
H H 0.6116680406501827 1.0460861008312878 0.5387361813800621 0.0
C C 0.5947736746795012 0.9520828086010289 0.44125233297618555 0.0
H H 0.5684036746795014 0.9650428086010289 0.37668233297618553 0.0
C C 0.5834271539873626 0.96016850366976 0.4506677773706419 0.0
H H 0.5511571539873625 0.9319285036697599 0.40820777737064184 0.0
C C 0.6736866939632725 0.9007935890172941 0.5707920691257189 0.0
C C 0.579601099183181 0.7960864779023807 0.6222473262420217 0.0
C C 0.8514437370379583 0.8171232254301087 0.597262505500761 0.0
C C 0.7870103272131153 0.7537114645951372 0.6085399594674997 0.0
C C 0.8837679094136189 0.7188835656422319 0.5226906536235755 0.0
H H 0.9380979094136188 0.7394335656422317 0.48991065362357544 0.0
C C 0.9240671996199917 0.7221185643594273 0.5705685377705213 0.0
H H 0.9934971996199916 0.7099485643594273 0.5802785377705212 0.0
C C 0.8490743064780176 0.6470638767041258 0.6166180383124353 0.0
C C 0.7584456862951446 0.6535608978420563 0.6338996251462812 0.0
C C 0.6908729407268008 0.7554437480103562 0.6342878812496664 0.0
C C 0.5843317488801297 0.7701694982785039 0.6013481464847327 0.0
C C 0.5485167024657301 0.7157366299543774 0.7079978210834887 0.0
H H 0.4808667024657301 0.7311066299543774 0.7151378210834888 0.0
C C 0.5025042263157382 0.647787287559615 0.6155035204247514 0.0
H H 0.44963422631573824 0.623547287559615 0.6420335204247516 0.0
C C 0.6074827640451256 0.641554384063821 0.608923929090948 0.0
C C 0.6445035237684631 0.5619522882010901 0.7265931257825115 0.0
C C 0.8867565326802606 0.5329458111172256 0.6886625819328943 0.0
C C 0.7024951494250679 0.4645669323153398 0.6700192202848647 0.0
C C 0.8598529345544945 0.5049477185478171 0.740594093219482 0.0
H H 0.8692729345544945 0.5381977185478172 0.782104093219482 0.0
C C 0.8053574152885867 0.4155989450992894 0.8446344871489475 0.0
H H 0.8450404152885868 0.4082089450992894 0.9050184871489474 0.0
C C 0.7938672176651556 0.3542910925901773 0.7604803335106667 0.0
H H 0.7801772176651556 0.31563109259017735 0.7799703335106666 0.0
C C 0.7697071014805548 0.3759135872039756 0.6339170762181185 0.0
C C 0.7488642465241042 0.40593798424537525 0.5432722661655855 0.0
C C 0.7834815948903433 0.4385989841735233 0.5700455153844882 0.0
H H 0.7742115948903433 0.47725898417352325 0.5485755153844881 0.0
C C 0.667714142084796 0.4266154417181458 0.49294351916390655 0.0
H H 0.6280541420847959 0.43097544171814584 0.4315835191639066 0.0
C C 0.6428867370761847 0.4496241092286341 0.4721763499409634 0.0
H H 0.6387967370761846 0.4211641092286341 0.41929634994096343 0.0
N N 0.7352717243736778 1.038663968774587 0.7271173623102113 0.0
N N 0.7276875542884599 0.8317060295968894 0.6905059706339892 0.0
N N 0.7586360869394378 0.5593531511689555 0.6881554610360494 0.0
N N 0.7589342726399501 0.31044010136788314 0.6351009929298819 0.0
O O 0.5950080285187951 1.1449670757839674 0.6649597664251252 0.0
O O 0.6348314792096571 1.2235773220166584 0.6440429879218902 0.0
O O 0.7592348221033728 1.1004726386470718 0.4875067606083576 0.0
O O 0.6835582862026526 1.2196546278746194 0.4675780459919566 0.0
O O 0.7134683492989036 1.1468486426259596 0.8675770727061427 0.0
O O 0.8301651651189553 1.2731266784940247 0.8163295491846861 0.0
O O 0.902692124739879 1.123450049348561 0.8105209747853076 0.0
O O 0.9693682458822392 1.234343404404311 0.635016368556553 0.0
O O 0.7994065898777629 0.8476718155677919 0.4824239393283941 0.0
O O 0.583875670280655 0.8270214049853823 0.6654968540057888 0.0
O O 0.9528433787678148 0.5948262270614538 0.6608801372795663 0.0
O O 0.5548326233194086 0.5075991584118558 0.7862607037773984 0.0
Zn Zn 0.7640768445048265 1.2364064706094997 0.5814488596399067 0.0
Zn Zn 0.7355578332907319 1.1243344476947497 0.617901703967928 0.0
C C -0.5635645873704697 1.724547273693197 -0.6002276306864287 0.0
C C -0.4609017060099247 1.6903748775531933 -0.5835141708038152 0.0
C C -0.334162491807085 1.6859705765757056 -0.6242314492631453 0.0
H H -0.367512491807085 1.6495405765757056 -0.6216814492631454 0.0
C C -0.2365649570155759 1.683786948349777 -0.6062744979741963 0.0
C C -0.18516922004079486 1.7119756887329836 -0.6556110359577043 0.0
C C -0.3300066843762867 1.788770514458814 -0.6504427734411451 0.0
H H -0.2997566843762867 1.825940514458814 -0.6529027734411451 0.0
C C -0.3762421548737056 1.7759331446972135 -0.7020269275840155 0.0
H H -0.42149215487370556 1.8080031446972136 -0.7006769275840156 0.0
C C -0.1219652360884803 1.5926865636961154 -0.6242233597667591 0.0
H H -0.14830523608848026 1.5548565636961154 -0.6161633597667593 0.0
C C -0.10049752859940286 1.6273881937049317 -0.61844251996575 0.0
H H -0.05794752859940287 1.5945481937049317 -0.6291925199657499 0.0
C C -0.034367711473366785 1.6866729912674143 -0.6787949941148796 0.0
C C -0.12099104056781819 1.6995143340324301 -0.6474718513391237 0.0
H H -0.0935410405678182 1.73738433403243 -0.6452218513391236 0.0
C C -0.7212083171978054 1.6505532954370576 -0.47298110037223345 0.0
C C -0.6805575515136437 1.7349358933308352 -0.7760894188941537 0.0
C C -0.80610883465969 1.6963764210735497 -0.9871396371005575 0.0
C C -0.7572815332219645 1.6554036866527044 -1.0334674718972334 0.0
H H -0.7587315332219644 1.6175736866527044 -1.0055174718972335 0.0
C C -0.7308586449531459 1.6448197560450315 -1.107045620147548 0.0
C C -0.7862974177001619 1.6897555060918386 -1.1537158985013989 0.0
C C -0.7397981097673403 1.756694841320763 -1.1632236880712186 0.0
H H -0.7580481097673403 1.793274841320763 -1.1900736880712184 0.0
C C -0.7433983759572798 1.7470204722921923 -0.9725115620195193 0.0
H H -0.7161483759572798 1.7798904722921924 -0.9384615620195192 0.0
C C -0.667232390214362 1.5971545890380299 -1.1825748756991785 0.0
H H -0.679272390214362 1.5608245890380297 -1.1511248756991785 0.0
C C -0.6877260704854306 1.5876193556417955 -1.265832798068045 0.0
H H -0.6859560704854305 1.5538893556417954 -1.307372798068045 0.0
C C -0.7325863891700369 1.6549264274554056 -1.3478225028609006 0.0
C C -0.707380867939803 1.7152810956507956 -1.3153671713827675 0.0
H H -0.721130867939803 1.7513510956507956 -1.3470271713827675 0.0
C C -0.9253407004987981 1.6713001490309691 -0.6473425835294659 0.0
C C -0.7789213646502329 1.4900704025922793 -0.7799151297855933 0.0
H H -0.8031613646502329 1.5200404025922796 -0.8234551297855932 0.0
C C -0.7176885475736099 1.4506021191644543 -0.856635912656986 0.0
H H -0.7376185475736098 1.442262119164454 -0.9256759126569861 0.0
C C -0.8090796181635592 1.4198270659124193 -0.799070809380464 0.0
H H -0.8319196181635594 1.3816970659124195 -0.812010809380464 0.0
C C -0.6782240843725349 1.445627842192124 -0.619529336146192 0.0
C C -0.7309417402478336 1.5256946655146129 -0.6524124150928143 0.0
C C -0.6306716768845709 1.5231451339858486 -0.5498827943854352 0.0
H H -0.6092216768845711 1.5617151339858486 -0.5385227943854352 0.0
C C -0.5914874544778769 1.4721722885664823 -0.47904974382867294 0.0
H H -0.565117454477877 1.4851322885664824 -0.4144797438286729 0.0
C C -0.6078109095056731 1.4264109066336823 -0.47215832502573596 0.0
H H -0.5755409095056729 1.3981709066336825 -0.42969832502573596 0.0
C C -0.6487861370604866 1.4007006248198743 -0.539513009374567 0.0
C C -0.5799766997716647 1.2611312642907269 -0.679918278377983 0.0
C C -0.81007075494264 1.3112840430115653 -0.6229113573359576 0.0
C C -0.8345142257292033 1.2509319509856711 -0.62796667967673 0.0
C C -0.8518759649750947 1.207375416353726 -0.5404945839932314 0.0
H H -0.9062059649750945 1.2279254163537259 -0.5077145839932313 0.0
C C -0.8496246995281517 1.153962491578678 -0.6004882796049866 0.0
H H -0.9190546995281516 1.141792491578678 -0.6101982796049865 0.0
C C -0.8923696993612529 1.1204085871743148 -0.6376450653883687 0.0
C C -0.7504028593329048 1.166203790499032 -0.6254962669234395 0.0
C C -0.6860407066087213 1.2250624180847824 -0.6569592191517271 0.0
C C -0.6195386536946772 1.2404376404171764 -0.6055386349882729 0.0
C C -0.5218609587095998 1.1901702563276255 -0.6705683436583689 0.0
H H -0.4542109587095998 1.2055402563276258 -0.677708343658369 0.0
C C -0.517343312771774 1.1674941421496607 -0.6472748334606334 0.0
H H -0.464473312771774 1.1432541421496607 -0.6738048334606335 0.0
C C -0.6429481291446498 1.0984623618580902 -0.6656188890968622 0.0
C C -0.57898997906407 1.0072938590249785 -0.7342270455214361 0.0
C C -0.8539882475572401 1.089488283121549 -0.6079732048056763 0.0
C C -0.7193887621659445 0.996378982552489 -0.6849761110920934 0.0
C C -0.8756427952049048 0.9669912661374955 -0.8735181241693596 0.0
H H -0.8850627952049047 1.0002412661374958 -0.9150281241693597 0.0
C C -0.8630691882428851 0.9043561411433856 -0.7333257312400854 0.0
H H -0.9027521882428852 0.8969661411433856 -0.7937097312400854 0.0
C C -0.8273279933510911 0.8190416790270498 -0.8216655373964237 0.0
H H -0.8136379933510911 0.78038167902705 -0.8411555373964237 0.0
C C -0.7701439537423869 0.8882525324636452 -0.6804527747279596 0.0
C C -0.7187940746884479 0.9320708791846108 -0.6549770104025276 0.0
C C -0.6480731858774929 0.981483654432159 -0.5385672492142569 0.0
H H -0.6388031858774929 1.0201436544321592 -0.5170972492142569 0.0
C C -0.5903727755289758 0.8763586982507108 -0.5010517364898244 0.0
H H -0.5507127755289757 0.8807186982507107 -0.4396917364898245 0.0
C C -0.6744463309000984 0.8675616083958123 -0.5180899506626384 0.0
H H -0.6703563309000983 0.8391016083958124 -0.46520995066263837 0.0
N N -0.7451907802788544 1.5223492207060023 -0.6927445544769076 0.0
N N -0.6685779843443982 1.3339344063283487 -0.60788137583973 0.0
N N -0.7508095299571408 1.0331772152433594 -0.6695727248313358 0.0
N N -0.6740250315736703 0.8305046976119087 -0.5832007143879796 0.0
O O -0.5685486942496646 1.6100752013974653 -0.6301024237140459 0.0
O O -0.5746748845153418 1.7229628958022236 -0.6220026656516058 0.0
O O -0.7228165912690205 1.6104290454899577 -0.5018373714187062 0.0
O O -0.772709859544636 1.7033610120772966 -0.3998735207484321 0.0
O O -0.6507268483716389 1.5833519096008288 -0.8112720152778367 0.0
O O -0.7443362287422639 1.7089416441942742 -0.7441128033251283 0.0
O O -0.8981690215528606 1.6284366880459562 -0.6686567429819537 0.0
O O -0.8817919215813572 1.7319821921490495 -0.7532001476612382 0.0
O O -0.7978750075410602 1.3383786174437737 -0.5541036214535648 0.0
O O -0.5023093627510107 1.3413697805982003 -0.7009955233800408 0.0
O O -0.7989539538796891 1.0971871541589957 -0.6651467802437674 0.0
O O -0.5399335376448456 0.9930924771079762 -0.6497245655787814 0.0
Zn Zn -0.7379401707111625 1.7426394698850496 -0.6840412821293091 0.0
Zn Zn -0.7237597063504688 1.6135407534056123 -0.6487655437734605 0.0
