_cell_length_a 12.935
_cell_length_b 23.242012
_cell_length_c 12.93505
_cell_angle_alpha 90.0
_cell_angle_beta 90.0
_cell_angle_gamma 90.0
_symmetry_space_group_name_H-M         'P 1'
_symmetry_Int_Tables_number            1
loop_
_symmetry_equiv_pos_as_xyz
   'x, y, z'
                         
loop_
_atom_site_label
_atom_site_type_symbol
_atom_site_fract_x 
_atom_site_fract_y
_atom_site_fract_z
_atom_site_charge
C C 0.5137642135094774 1.192386521510844 0.6347795972958781 0.0
C C 0.4217616353005417 1.214470669603611 0.6265028359376313 0.0
C C 0.358337765287861 1.1528195170284015 0.6282355305802007 0.0
H H 0.39168776528786103 1.1163895170284015 0.6256855305802007 0.0
C C 0.25210452935590993 1.127837836467792 0.669265898973249 0.0
C C 0.20892718964505666 1.2287854124492263 0.669130469393769 0.0
C C 0.320427274699328 1.2671563975198843 0.5923773605581371 0.0
H H 0.2901772746993281 1.3043263975198842 0.5948373605581372 0.0
C C 0.36688045820916954 1.2442441485184519 0.671939463564578 0.0
H H 0.41213045820916944 1.276314148518452 0.670589463564578 0.0
C C 0.16031572028507185 1.1083589082720415 0.6636941165048624 0.0
H H 0.18665572028507177 1.0705289082720415 0.6556341165048626 0.0
C C 0.11274895911434311 1.132881879080519 0.685965718392652 0.0
H H 0.07019895911434314 1.100041879080519 0.696715718392652 0.0
C C 0.061573758027540886 1.1919008096802717 0.6484543914754219 0.0
C C 0.0907956648823579 1.196367390449382 0.6930313982503683 0.0
H H 0.06334566488235789 1.234237390449382 0.6907813982503682 0.0
C C 0.7806959780853072 1.1783355074174 0.5110927301872822 0.0
C C 0.7107427561788643 1.2137292879286496 0.887472430311414 0.0
C C 0.7918126512045633 1.2254592088470404 0.9019239898302572 0.0
C C 0.7871578293476821 1.176446808847217 1.0154812854774375 0.0
H H 0.788607829347682 1.138616808847217 0.9875312854774376 0.0
C C 0.767682151084967 1.174500843626136 1.098278260764769 0.0
C C 0.7742028594133358 1.2015899019231413 1.1639408644235518 0.0
C C 0.805469661171975 1.2917487750223846 1.0798615178704842 0.0
H H 0.8237196611719751 1.3283287750223847 1.106711517870484 0.0
C C 0.745869768453094 1.2482821091212533 0.9968758285325969 0.0
H H 0.7186197684530942 1.2811521091212532 0.9628258285325969 0.0
C C 0.6528444597407195 1.0950493580509815 1.1781966929957435 0.0
H H 0.6648844597407194 1.0587193580509815 1.1467466929957435 0.0
C C 0.721228305830961 1.1133494418082435 1.3294367675349268 0.0
H H 0.7194583058309609 1.0796194418082434 1.3709767675349267 0.0
C C 0.7509455787900873 1.1528427952424787 1.3258895269627822 0.0
C C 0.7604614908632771 1.2235925336082016 1.2832607948236654 0.0
H H 0.774211490863277 1.2596625336082017 1.3149207948236654 0.0
C C 0.9154814881010078 1.1670553596733606 0.6468826942372643 0.0
C C 0.6858157265729355 1.0117365070188473 0.8444319587964283 0.0
H H 0.7100557265729355 1.0417065070188476 0.8879719587964283 0.0
C C 0.8060568138918206 0.9621328508545838 0.8192296811865803 0.0
H H 0.8259868138918206 0.9537928508545837 0.8882696811865803 0.0
C C 0.7719439086517136 0.9173630697453383 0.7510804266678869 0.0
H H 0.7947839086517138 0.8792330697453383 0.7640204266678868 0.0
C C 0.6679100232815576 0.9486066797788657 0.7064261226077478 0.0
C C 0.7039551136551621 1.0133298256764975 0.6126586239921058 0.0
C C 0.605788774699198 1.010625023273545 0.4999246510557767 0.0
H H 0.584338774699198 1.049195023273545 0.48856465105577673 0.0
C C 0.566863323246561 0.9567771925645487 0.522122373945437 0.0
H H 0.5404933232465611 0.9697371925645487 0.45755237394543696 0.0
C C 0.5959631970518293 0.9139830589176801 0.4562115892377676 0.0
H H 0.5636931970518293 0.8857430589176799 0.4137515892377676 0.0
C C 0.7207669027841489 0.8673486193019331 0.551506539509631 0.0
C C 0.5750981119724311 0.8019233309739705 0.6395864305830744 0.0
C C 0.7685662702296067 0.8147996114770427 0.5187553667218204 0.0
C C 0.7642220788841984 0.7889250373511922 0.5370241210365019 0.0
C C 0.8701704112262953 0.7150988751046798 0.5866912531569763 0.0
H H 0.9245004112262952 0.7356488751046797 0.5539112531569763 0.0
C C 0.8375610874049492 0.6724255022392783 0.6367467012604782 0.0
H H 0.9069910874049492 0.6602555022392783 0.646456701260478 0.0
C C 0.7754756464384277 0.6240065923585771 0.6174800306381015 0.0
C C 0.7539688646945392 0.6442509540329233 0.5920031113584419 0.0
C C 0.7657886395592471 0.7119277007125228 0.614401929334366 0.0
C C 0.6114739462250649 0.7394972824789228 0.6324462006652983 0.0
C C 0.5203704453828247 0.6861164948266958 0.7246149699310456 0.0
H H 0.4527204453828248 0.7014864948266957 0.7317549699310456 0.0
C C 0.5552146001498875 0.6689538079916342 0.6575349482979338 0.0
H H 0.5023446001498876 0.6447138079916341 0.684064948297934 0.0
C C 0.5947313872326516 0.6076280012934296 0.6470683083164012 0.0
C C 0.5844324062564237 0.5451076822015288 0.7149195937511363 0.0
C C 0.8471311380080179 0.5716852012574996 0.6540320977168728 0.0
C C 0.7974170531362954 0.4991015734246716 0.6878239667659602 0.0
C C 0.8325773161030352 0.4843867577506958 0.8310216406639407 0.0
H H 0.8419973161030351 0.517636757750696 0.8725316406639408 0.0
C C 0.8092971076563853 0.3834931696726301 0.8933864252346333 0.0
H H 0.8489801076563852 0.3761031696726301 0.9537704252346333 0.0
C C 0.8143333194208826 0.34326313282323856 0.7923198214160202 0.0
H H 0.8006433194208825 0.3046031328232386 0.8118098214160201 0.0
C C 0.7621419462106027 0.3831948145776242 0.6596471296489295 0.0
C C 0.7746248189591365 0.4373050151825428 0.6652366991884482 0.0
C C 0.6539459017651587 0.4033092935940738 0.5968248402419841 0.0
H H 0.6446759017651588 0.4419692935940738 0.5753548402419841 0.0
C C 0.673266096374311 0.3818192295717841 0.4746780968977085 0.0
H H 0.6336060963743109 0.38617922957178413 0.41331809689770854 0.0
C C 0.7287421643164909 0.3468963774045489 0.49088936690353446 0.0
H H 0.7246521643164907 0.31843637740454883 0.4380093669035344 0.0
N N 0.7335966924289834 1.058333970491507 0.6371403872425674 0.0
N N 0.7012790748198912 0.8151042208661771 0.6533666136617112 0.0
N N 0.7349351505135203 0.5350034804432982 0.6653841090955311 0.0
N N 0.7522892147994901 0.3691724625525506 0.5827693980658912 0.0
O O 0.6463433043968044 1.1925101860914804 0.6109722897869012 0.0
O O 0.5664285514152125 1.2471818551245677 0.4988375504620743 0.0
O O 0.8502855961449993 1.1372842244946832 0.552078777654529 0.0
O O 0.7204738098193137 1.2014280602385272 0.49447177343370624 0.0
O O 0.7247335706163154 1.1088121050026343 0.7575082597217301 0.0
O O 0.7636322843225954 1.2329596386650377 0.8133477580363533 0.0
O O 0.9588309736474168 1.1365085113615676 0.753306348825161 0.0
O O 0.8547573917312608 1.2659210795521842 0.5792293167484996 0.0
O O 0.8030904294694913 0.8085450332897507 0.46076526078064756 0.0
O O 0.508310824218123 0.7899654425038016 0.6590452529540611 0.0
O O 0.8588638643339668 0.5784522925460996 0.6363626887354094 0.0
O O 0.562590480401118 0.5708038555473084 0.6813549995016385 0.0
Zn Zn 0.8053259345308819 1.2382556760972803 0.6800466942533946 0.0
Zn Zn 0.7627948459871765 1.113057915770431 0.6238985111467741 0.0
C C -0.5326842915234336 1.699110911162318 -0.6828263407883876 0.0
C C -0.4397548441876779 1.6878514668366746 -0.5747903030514288 0.0
C C -0.3567724958963773 1.682838438765611 -0.6224671717499477 0.0
H H -0.3901224958963773 1.6464084387656108 -0.6199171717499476 0.0
C C -0.29129791307811953 1.6555698341098382 -0.7003339313553002 0.0
C C -0.21402940396336007 1.7088359380995142 -0.6703045586019111 0.0
C C -0.3620393792574047 1.7772080011895561 -0.6723085605587639 0.0
H H -0.33178937925740465 1.814378001189556 -0.674768560558764 0.0
C C -0.39484846524469136 1.737960700408182 -0.6748555444882601 0.0
H H -0.4400984652446914 1.7700307004081821 -0.6735055444882602 0.0
C C -0.22201378627811588 1.6106551219387342 -0.6064097842100307 0.0
H H -0.24835378627811586 1.5728251219387344 -0.5983497842100307 0.0
C C -0.12448250315322579 1.6261289982980076 -0.6639886942505637 0.0
H H -0.08193250315322582 1.5932889982980076 -0.6747386942505637 0.0
C C -0.04620042638059955 1.6710246173905479 -0.6224375800421013 0.0
C C -0.1464663006312935 1.7298490175118844 -0.7180590694299579 0.0
H H -0.11901630063129354 1.7677190175118842 -0.7158090694299578 0.0
C C -0.79694931528327 1.674623206874945 -0.4163829047489974 0.0
C C -0.7608656650595015 1.6987133577698383 -0.906464981828903 0.0
C C -0.6883812271514573 1.7257857891560853 -0.923174096622542 0.0
C C -0.7430819611514379 1.638367456716513 -1.0343294653797224 0.0
H H -0.7445319611514377 1.600537456716513 -1.0063794653797224 0.0
C C -0.7747975994660893 1.6681600584456981 -1.133872509974654 0.0
C C -0.7408544290176174 1.6953071855525115 -1.1814862303828306 0.0
C C -0.7191967441201462 1.7691109608941977 -1.1010778840127262 0.0
H H -0.7374467441201463 1.8056909608941978 -1.1279278840127263 0.0
C C -0.6706955836021078 1.7474991687176513 -1.0770237915096426 0.0
H H -0.6434455836021078 1.7803691687176515 -1.0429737915096424 0.0
C C -0.712882020336208 1.614921373989928 -1.22552151406547 0.0
H H -0.7249220203362079 1.578591373989928 -1.19407151406547 0.0
C C -0.7979439189855465 1.6168044925419511 -1.3720188479147912 0.0
H H -0.7961739189855463 1.583074492541951 -1.4135588479147914 0.0
C C -0.7722761331017987 1.6940996148607275 -1.3690257370814851 0.0
C C -0.8320792724284422 1.7194319209693512 -1.3128548973864647 0.0
H H -0.8458292724284422 1.755501920969351 -1.3445148973864647 0.0
C C -0.9551978004816225 1.6657864190648277 -0.7043661873821184 0.0
C C -0.7628733070440655 1.5320367716367613 -0.7744776398687468 0.0
H H -0.7871133070440656 1.5620067716367614 -0.8180176398687468 0.0
C C -0.8207057860147856 1.4532367594421258 -0.850039360108755 0.0
H H -0.8406357860147855 1.4448967594421256 -0.9190793601087551 0.0
C C -0.7772610137745435 1.4205275687202026 -0.736536645076344 0.0
H H -0.8001010137745437 1.3823975687202028 -0.7494766450763439 0.0
C C -0.6860081453825457 1.4185610392661168 -0.653732755555519 0.0
C C -0.6508002112378573 1.5210582403873067 -0.6210599697426763 0.0
C C -0.6508766708935798 1.4960553831911343 -0.49615731806011276 0.0
H H -0.62942667089358 1.5346253831911343 -0.4847973180601128 0.0
C C -0.6149270236810525 1.4602624832695708 -0.498851225368209 0.0
H H -0.5885570236810526 1.4732224832695708 -0.4342812253682089 0.0
C C -0.5826654684928028 1.3836003307121902 -0.4704775757659454 0.0
H H -0.5503954684928027 1.3553603307121906 -0.4280175757659454 0.0
C C -0.6655197218269875 1.392403430447979 -0.5737997765532383 0.0
C C -0.5662584148553303 1.2628069411061587 -0.6629059895147964 0.0
C C -0.7560735791959546 1.3354720847239878 -0.5923800860309804 0.0
C C -0.8162347893083032 1.2387099792949703 -0.5849401477863954 0.0
C C -0.8857000338260296 1.2278243890638736 -0.5884491046375356 0.0
H H -0.9400300338260295 1.2483743890638734 -0.5556691046375356 0.0
C C -0.867301239009839 1.1760625217339196 -0.6223508710782535 0.0
H H -0.9367312390098389 1.1638925217339195 -0.6320608710782534 0.0
C C -0.8177601717407295 1.1572905504682873 -0.6607735658379158 0.0
C C -0.7029535791881611 1.1546839465521945 -0.6179705016155598 0.0
C C -0.7451673201648596 1.2143513220662552 -0.6697559886251441 0.0
C C -0.6129111159981044 1.2246465764672845 -0.6911433206375516 0.0
C C -0.480282145749685 1.2023178542911257 -0.6777191868183358 0.0
H H -0.412632145749685 1.2176878542911258 -0.6848591868183358 0.0
C C -0.5123048402709229 1.1548731073555172 -0.6712701051923737 0.0
H H -0.4594348402709229 1.1306331073555171 -0.6978001051923739 0.0
C C -0.687631085662793 1.1382114814106947 -0.6982124841176571 0.0
C C -0.65651663279359 1.0673493443295303 -0.68059548727058 0.0
C C -0.8098752804869057 1.0529883553632513 -0.6524945380372645 0.0
C C -0.6830376288233634 0.9715847663177157 -0.7451918406574591 0.0
C C -0.7594072190255247 0.9921903467406334 -0.8310401147932917 0.0
H H -0.7688272190255246 1.0254403467406337 -0.8725501147932918 0.0
C C -0.9106136939979949 0.8907999019157877 -0.8393187866251289 0.0
H H -0.9502966939979949 0.8834099019157877 -0.8997027866251289 0.0
C C -0.8392227315550664 0.8014184063210863 -0.7991707895127608 0.0
H H -0.8255327315550665 0.7627584063210865 -0.8186607895127607 0.0
C C -0.785245217117286 0.891288579591336 -0.6775230355690506 0.0
C C -0.8132977970558972 0.9264282920782725 -0.6674193565302697 0.0
C C -0.5984623019128128 1.0009441479367953 -0.4857868599326601 0.0
H H -0.5891923019128128 1.0396041479367955 -0.46431685993266003 0.0
C C -0.7428528802738067 0.9247079045601369 -0.4153116614546558 0.0
H H -0.7031928802738066 0.9290679045601369 -0.35395166145465584 0.0
C C -0.7373619081758436 0.8634455522765031 -0.4773995303625831 0.0
H H -0.7332719081758434 0.8349855522765031 -0.4245195303625831 0.0
N N -0.7766141046590174 1.5665334534119995 -0.6752372488059133 0.0
N N -0.6883541504747845 1.3522652041567722 -0.6653726374620986 0.0
N N -0.6861428651564444 1.0325311563736195 -0.7568258954752722 0.0
N N -0.7975197336751368 0.8239448983420309 -0.607711787070323 0.0
O O -0.6384404732083673 1.6430501734429765 -0.6284106686497507 0.0
O O -0.5672696492632197 1.7402918568979797 -0.6131832197508941 0.0
O O -0.7998926446434556 1.6260665129550211 -0.5168030330299686 0.0
O O -0.7684787563625687 1.7119810087630216 -0.5381043086724953 0.0
O O -0.7616877770714698 1.6537891609839765 -0.8639006036339242 0.0
O O -0.7629511796058059 1.7528288679375066 -0.7695857461160694 0.0
O O -0.8891811816677936 1.6532431231025206 -0.7163623340983808 0.0
O O -0.9053513749522428 1.7524905267006177 -0.6498993522140606 0.0
O O -0.8209681887005361 1.3458477400543187 -0.4980770412421357 0.0
O O -0.46851132522333655 1.3415013252593884 -0.6074588289214361 0.0
O O -0.9457199842665313 1.020568015577092 -0.6713076188906356 0.0
O O -0.5224534358356827 0.9875263926634638 -0.7344331495528947 0.0
Zn Zn -0.7191216163068942 1.7551381881420183 -0.6539397762985861 0.0
Zn Zn -0.7079506288857061 1.6214958858030655 -0.6553537713318833 0.0
