_cell_length_a 12.935
_cell_length_b 23.242012
_cell_length_c 12.93505
_cell_angle_alpha 90.0
_cell_angle_beta 90.0
_cell_angle_gamma 90.0
_symmetry_space_group_name_H-M         'P 1'
_symmetry_Int_Tables_number            1
loop_
_symmetry_equiv_pos_as_xyz
   'x, y, z'
                         
loop_
_atom_site_label
_atom_site_type_symbol
_atom_site_fract_x 
_atom_site_fract_y
_atom_site_fract_z
_atom_site_charge
C C 0.4664644651496604 1.1893893834229088 0.5953027168292342 0.0
C C 0.4355362191107234 1.1774666619580025 0.6881853910825858 0.0
C C 0.344731720181034 1.1426204851573165 0.6501286127702843 0.0
H H 0.37808172018103403 1.1061904851573165 0.6475786127702844 0.0
C C 0.2989219483127715 1.1551654377345357 0.6360468307919828 0.0
C C 0.1723980549123355 1.2009043413394638 0.7524860384460242 0.0
C C 0.2540817586965683 1.249862476850304 0.638619412137073 0.0
H H 0.22383175869656832 1.2870324768503039 0.641079412137073 0.0
C C 0.3722987050580205 1.2873459151352058 0.6132889042767617 0.0
H H 0.41754870505802044 1.3194159151352058 0.6119389042767617 0.0
C C 0.17129531281622984 1.0978702770494435 0.7182972800618758 0.0
H H 0.19763531281622976 1.0600402770494435 0.7102372800618759 0.0
C C 0.1314058546532347 1.0985122840976647 0.6467939745581267 0.0
H H 0.08885585465323471 1.0656722840976647 0.6575439745581266 0.0
C C 0.0039262739107581 1.1611441695220546 0.6014744569452195 0.0
C C 0.12810471576969085 1.2078554353719362 0.6723163661867638 0.0
H H 0.10065471576969086 1.2457254353719363 0.6700663661867637 0.0
C C 0.8117819597625767 1.1636270884999638 0.48963549921257926 0.0
C C 0.7765053840263677 1.2043083240035697 0.9079213533945213 0.0
C C 0.7089073107874012 1.210719893767858 0.8716375452487856 0.0
C C 0.7623847781957407 1.1449937632903295 1.0053309367981416 0.0
H H 0.7638347781957405 1.1071637632903293 0.9773809367981415 0.0
C C 0.7233450158715418 1.1628329759747547 1.1240251504634873 0.0
C C 0.7298387668685017 1.1700580243745617 1.1962386148913058 0.0
C C 0.7830514556981477 1.2616482708575887 1.0845196952522578 0.0
H H 0.8013014556981478 1.2982282708575887 1.1113696952522576 0.0
C C 0.6420215495658889 1.2503298240923353 1.070565933971676 0.0
H H 0.6147715495658889 1.2831998240923352 1.0365159339716759 0.0
C C 0.7179133898108404 1.1096792154178068 1.157711779948351 0.0
H H 0.7299533898108403 1.0733492154178068 1.126261779948351 0.0
C C 0.7176967199336531 1.1085649621330487 1.3045656397612158 0.0
H H 0.7159267199336531 1.0748349621330489 1.3461056397612159 0.0
C C 0.7081519767515221 1.1656952104772937 1.3204805627420821 0.0
C C 0.7517465041543706 1.2196056466830552 1.3234668841560155 0.0
H H 0.7654965041543705 1.2556756466830552 1.3551268841560156 0.0
C C 0.9090585393885737 1.1752350842101258 0.6270466064071407 0.0
C C 0.7997146289025987 1.0243770980408657 0.7562590749203308 0.0
H H 0.8239546289025986 1.0543470980408658 0.7997990749203309 0.0
C C 0.7068199590194596 0.9974599865146557 0.7972040951120363 0.0
H H 0.7267499590194596 0.9891199865146557 0.8662440951120364 0.0
C C 0.7849533585931024 0.910547160607611 0.744813931892413 0.0
H H 0.8077933585931026 0.872417160607611 0.757753931892413 0.0
C C 0.7064983593555718 0.9202255744768938 0.6768395979999062 0.0
C C 0.6715987532407564 0.9839711800827291 0.6098817514132875 0.0
C C 0.6380594306540832 1.0206088835199476 0.4968079682935407 0.0
H H 0.6166094306540834 1.0591788835199476 0.4854479682935407 0.0
C C 0.5779506990247056 0.9723858729296322 0.40723568062178067 0.0
H H 0.5515806990247057 0.9853458729296323 0.34266568062178066 0.0
C C 0.5966396731273799 0.8567263678372111 0.5178601879706999 0.0
H H 0.5643696731273798 0.828486367837211 0.47540018797069994 0.0
C C 0.7235426338614152 0.8649830088018009 0.5821053279361886 0.0
C C 0.5629043775406519 0.8196949028805876 0.6522056501494918 0.0
C C 0.8036187422984786 0.8306331504044929 0.5686767579579279 0.0
C C 0.82849270742291 0.7694694334073632 0.5429546156180047 0.0
C C 0.875725995828776 0.6907377826149539 0.5673927057133982 0.0
H H 0.9300559958287758 0.7112877826149537 0.5346127057133981 0.0
C C 0.8398796735959088 0.6066592117662326 0.5649561475324175 0.0
H H 0.9093096735959088 0.5944892117662326 0.5746661475324174 0.0
C C 0.8274111295580611 0.6387147835504471 0.6633244932159729 0.0
C C 0.7289092384751988 0.6800634566386123 0.7174699585195139 0.0
C C 0.6533594195405533 0.7385381609787599 0.6149262364240159 0.0
C C 0.6587562499332948 0.7663484876537929 0.6486749284540305 0.0
C C 0.5633083541567044 0.7306089567188826 0.6238014788540317 0.0
H H 0.4956583541567044 0.7459789567188826 0.6309414788540317 0.0
C C 0.5656439132874914 0.6511969107291055 0.7620538392223604 0.0
H H 0.5127739132874914 0.6269569107291054 0.7885838392223604 0.0
C C 0.6201493274881783 0.6571846186333251 0.6789220360286325 0.0
C C 0.7124478211735553 0.5269595138493511 0.6719543689711783 0.0
C C 0.8289713623856995 0.5933973758351754 0.6017438604624389 0.0
C C 0.7357967366461978 0.46339625863556494 0.6369460019936516 0.0
C C 0.899164558400891 0.5110408259808724 0.748856962102728 0.0
H H 0.908584558400891 0.5442908259808724 0.790366962102728 0.0
C C 0.813488122385591 0.4055070684344882 0.8337260963434842 0.0
H H 0.853171122385591 0.3981170684344882 0.894110096343484 0.0
C C 0.793789750178749 0.3686806104178574 0.6800967330992522 0.0
H H 0.780099750178749 0.33002061041785746 0.6995867330992521 0.0
C C 0.7970831050775348 0.38196314149034066 0.6906897679583762 0.0
C C 0.6915268579437501 0.4299712857469596 0.6812234928654785 0.0
C C 0.665664361498237 0.4648432235555147 0.5578878185323457 0.0
H H 0.6563943614982372 0.5035032235555147 0.5364178185323457 0.0
C C 0.6618643502952144 0.4227521320971143 0.4622038703919643 0.0
H H 0.6222043502952143 0.42711213209711435 0.40084387039196434 0.0
C C 0.7377255617625595 0.3216706755354648 0.5056846897188871 0.0
H H 0.7336355617625595 0.2932106755354648 0.45280468971888715 0.0
N N 0.7330795173384825 1.027198305113167 0.7574228314538525 0.0
N N 0.6392350896643936 0.8528069151235947 0.5330315952594984 0.0
N N 0.7999239356600331 0.5334771203070867 0.7046047845641309 0.0
N N 0.7802245004907828 0.3251659445537272 0.5851945806155977 0.0
O O 0.617715730538051 1.0946794478242037 0.6789810380926123 0.0
O O 0.5502367719177406 1.1982250717866034 0.5887972555242506 0.0
O O 0.716225975298561 1.1422308774359566 0.509952706441929 0.0
O O 0.7675235697047943 1.2225133183522106 0.5548300522949057 0.0
O O 0.6257681829597425 1.157727484175261 0.8316760580732848 0.0
O O 0.7196518022040697 1.23508693902625 0.7492246193455975 0.0
O O 0.9391600392392913 1.127838765984996 0.7206364644265211 0.0
O O 0.8899727595969621 1.2458824358710388 0.6968718493319224 0.0
O O 0.8522297196449162 0.8115066481973706 0.5778306539957413 0.0
O O 0.5134306569667976 0.7691405560170709 0.6333235032667625 0.0
O O 0.970608975549289 0.5345624477066804 0.6368387586688994 0.0
O O 0.6301330061002658 0.5350209092794506 0.9041830622746226 0.0
Zn Zn 0.7579364060656065 1.2706610986154945 0.6254755790358367 0.0
Zn Zn 0.7537626077784932 1.1310403299875817 0.6643050300449169 0.0
C C -0.5581014011105878 1.6853888518057007 -0.7045367975614963 0.0
C C -0.45526914878346186 1.6918866787489995 -0.6728549855918375 0.0
C C -0.35548752558704777 1.632471713235364 -0.6612062340423315 0.0
H H -0.3888375255870478 1.5960417132353641 -0.6586562340423314 0.0
C C -0.24778735763574855 1.6565675321585276 -0.6011429713278138 0.0
C C -0.23299782566845495 1.6951832017026296 -0.6438596361979788 0.0
C C -0.26587876066542115 1.7646330518821487 -0.6437815388534204 0.0
H H -0.23562876066542124 1.8018030518821486 -0.6462415388534204 0.0
C C -0.3684949695001024 1.7526413970796209 -0.6518898529284617 0.0
H H -0.4137449695001024 1.7847113970796207 -0.6505398529284617 0.0
C C -0.28264647420869077 1.5825199899066802 -0.6967258657932578 0.0
H H -0.30898647420869074 1.5446899899066804 -0.688665865793258 0.0
C C -0.09199958067386756 1.594742350985146 -0.6272147993689069 0.0
H H -0.04944958067386756 1.561902350985146 -0.6379647993689068 0.0
C C -0.09425711821969075 1.6678453436299705 -0.6928494049967531 0.0
C C -0.10706623405360177 1.7360481943599635 -0.6640933181154464 0.0
H H -0.07961623405360178 1.7739181943599633 -0.6618433181154463 0.0
C C -0.7711627580773511 1.6568340358326739 -0.3745016412472787 0.0
C C -0.7148069868592306 1.677340980101361 -0.9305319506662296 0.0
C C -0.7263771599734675 1.695518324924107 -0.9461920463025489 0.0
C C -0.6870033471123893 1.6472635985406325 -1.0326460614099706 0.0
H H -0.6884533471123891 1.6094335985406325 -1.0046960614099707 0.0
C C -0.7224310621091098 1.6165580656969945 -1.1958261061821123 0.0
C C -0.7148571201399224 1.6843442687892127 -1.1559306627077635 0.0
C C -0.7913254517632673 1.785904660904261 -1.0786253158218846 0.0
H H -0.8095754517632674 1.822484660904261 -1.1054753158218846 0.0
C C -0.7474761020909851 1.7219160472532904 -0.9703742007434539 0.0
H H -0.7202261020909853 1.7547860472532906 -0.9363242007434539 0.0
C C -0.7118377230665819 1.611142295596877 -1.2037284473308452 0.0
H H -0.7238777230665818 1.5748122955968769 -1.1722784473308452 0.0
C C -0.7551478197081161 1.6045601377391256 -1.346190572721099 0.0
H H -0.7533778197081159 1.5708301377391256 -1.3877305727210991 0.0
C C -0.7343306622098315 1.6656172333444772 -1.3436390484902938 0.0
C C -0.7082351867330476 1.71273089419075 -1.3048767470795104 0.0
H H -0.7219851867330477 1.7488008941907498 -1.3365367470795102 0.0
C C -0.9070571789525786 1.6771458425689965 -0.556142504261091 0.0
C C -0.7495269617891105 1.5168286155610544 -0.7615894745974628 0.0
H H -0.7737669617891104 1.5467986155610545 -0.8051294745974629 0.0
C C -0.7774447717603357 1.4578942651414915 -0.8004538754933148 0.0
H H -0.7973747717603357 1.4495542651414912 -0.8694938754933148 0.0
C C -0.7391074402181093 1.4148426114436785 -0.7255465817072303 0.0
H H -0.7619474402181095 1.3767126114436787 -0.7384865817072302 0.0
C C -0.6835433490048388 1.417030780260101 -0.6937948352637074 0.0
C C -0.7344505159207315 1.5024888305402078 -0.6592375677544893 0.0
C C -0.6083003411083724 1.4870625927848886 -0.5127959100935425 0.0
H H -0.5868503411083726 1.5256325927848888 -0.5014359100935426 0.0
C C -0.5977708500094406 1.4794938593492468 -0.5417672688665771 0.0
H H -0.5714008500094407 1.492453859349247 -0.4771972688665771 0.0
C C -0.5501840019268015 1.4332144259437098 -0.556667201001609 0.0
H H -0.5179140019268015 1.4049744259437102 -0.514207201001609 0.0
C C -0.6317519271184695 1.371513663006151 -0.5314664649361551 0.0
C C -0.6254582124634577 1.3094295828404667 -0.5882698615886347 0.0
C C -0.7771593501572532 1.323673087397833 -0.5806934399835333 0.0
C C -0.76161558261598 1.2542175867573364 -0.5993567466693344 0.0
C C -0.850595551876341 1.2425970624430531 -0.6172887479734994 0.0
H H -0.9049255518763408 1.263147062443053 -0.5845087479734994 0.0
C C -0.9047480403762208 1.1862763110026653 -0.633647764328315 0.0
H H -0.9741780403762207 1.1741063110026653 -0.6433577643283149 0.0
C C -0.8216752721658707 1.1976788759351482 -0.7131994731961364 0.0
C C -0.7288941513254736 1.1373536527188592 -0.730659897146452 0.0
C C -0.7145749080235785 1.2103372203081284 -0.6417718913121733 0.0
C C -0.5929914929273113 1.2276907468164782 -0.6108916750753961 0.0
C C -0.4986934468886409 1.2190975919027895 -0.6013420732841995 0.0
H H -0.43104344688864094 1.2344675919027897 -0.6084820732841996 0.0
C C -0.5950130579182344 1.1576956430487089 -0.7662468029636373 0.0
H H -0.5421430579182344 1.1334556430487088 -0.7927768029636375 0.0
C C -0.6506114661754799 1.1172210376465703 -0.6380722891346398 0.0
C C -0.6463521424209292 1.0681958176662318 -0.6776347308589118 0.0
C C -0.8180104657553527 1.0570501593830761 -0.6733617067803568 0.0
C C -0.7110926341633371 0.9892750902284927 -0.6816072363483946 0.0
C C -0.8412111726966177 0.9720256789408412 -0.7273992020926062 0.0
H H -0.8506311726966177 1.0052756789408415 -0.7689092020926064 0.0
C C -0.7763517193467058 0.9483830174305626 -0.8874281819683827 0.0
H H -0.8160347193467057 0.9409930174305626 -0.9478121819683827 0.0
C C -0.8001394283037686 0.8371540980957207 -0.73788317709097 0.0
H H -0.7864494283037686 0.7984940980957208 -0.75737317709097 0.0
C C -0.7935149340705971 0.8793012891478799 -0.6570678330404555 0.0
C C -0.7338043003442467 0.9216509518678008 -0.6673408798289712 0.0
C C -0.6360541884928901 0.9883348467635649 -0.5305457489065899 0.0
H H -0.6267841884928901 1.0269948467635648 -0.5090757489065899 0.0
C C -0.6489936364073137 0.9058889910201124 -0.5029846155514376 0.0
H H -0.6093336364073136 0.9102489910201124 -0.44162461555143756 0.0
C C -0.6317640847103134 0.8463978290504838 -0.5272808835072844 0.0
H H -0.6276740847103133 0.8179378290504837 -0.47440088350728443 0.0
N N -0.6785901899512002 1.4709591480383513 -0.6917984250199298 0.0
N N -0.7266663139566619 1.3223195877814808 -0.6130270414061332 0.0
N N -0.7477123522356577 1.0505445849325594 -0.6858554568480837 0.0
N N -0.7657051298187595 0.8481177263839729 -0.5419866356185741 0.0
O O -0.5190975230135028 1.6380125412064936 -0.6216770505395949 0.0
O O -0.5473357006768739 1.74281977196368 -0.5955262310826694 0.0
O O -0.761157580575334 1.609360503350894 -0.5560476863026786 0.0
O O -0.806215388671865 1.724662561073892 -0.5150566499827695 0.0
O O -0.6765246023980204 1.6985909098183525 -0.8398148559578444 0.0
O O -0.7622127235920386 1.7104045633969522 -0.7922074019727391 0.0
O O -0.8042201241774389 1.6124002335892014 -0.6578594616974807 0.0
O O -0.9143514519163395 1.7428910666972415 -0.6479372414185272 0.0
O O -0.9314869764053686 1.3192876524953796 -0.6258468502987312 0.0
O O -0.5411275387000526 1.3361247646751786 -0.6350035890636037 0.0
O O -0.9313557234122984 1.0397280703497727 -0.6497153473303233 0.0
O O -0.5756887732643629 1.0023884023350416 -0.7733279786803079 0.0
Zn Zn -0.7523712426772611 1.7515948643489305 -0.6660352916463895 0.0
Zn Zn -0.6665179198324533 1.6316196125839861 -0.692495660766941 0.0
