_cell_length_a 12.935
_cell_length_b 23.242012
_cell_length_c 12.93505
_cell_angle_alpha 90.0
_cell_angle_beta 90.0
_cell_angle_gamma 90.0
_symmetry_space_group_name_H-M         'P 1'
_symmetry_Int_Tables_number            1
loop_
_symmetry_equiv_pos_as_xyz
   'x, y, z'
                         
loop_
_atom_site_label
_atom_site_type_symbol
_atom_site_fract_x 
_atom_site_fract_y
_atom_site_fract_z
_atom_site_charge
C C 0.49110908363264383 1.2163206482254625 0.6134169188300421 0.0
C C 0.37277115498782354 1.1951616592996732 0.6689969934651896 0.0
C C 0.33950251195608533 1.1599917813017335 0.6718679665678844 0.0
H H 0.3728525119560853 1.1235617813017336 0.6693179665678843 0.0
C C 0.200587823415882 1.1423866221000867 0.6581348283063914 0.0
C C 0.22788995933360284 1.242653821540827 0.6710259077807755 0.0
C C 0.3111507857210286 1.2749723727237938 0.64162836144861 0.0
H H 0.28090078572102856 1.3121423727237937 0.64408836144861 0.0
C C 0.408353081600987 1.2175813693435233 0.6704133261467217 0.0
H H 0.45360308160098695 1.2496513693435234 0.6690633261467217 0.0
C C 0.18687966282906077 1.1202319255703876 0.6585609187436771 0.0
H H 0.21321966282906069 1.0824019255703876 0.6505009187436771 0.0
C C 0.12097048527884954 1.118992914055198 0.6151347187907199 0.0
H H 0.07842048527884957 1.086152914055198 0.6258847187907199 0.0
C C 0.03754476182123259 1.1371641404632338 0.6303049514387997 0.0
C C 0.1023643105972537 1.2543066064839694 0.6894254693780505 0.0
H H 0.07491431059725373 1.2921766064839695 0.6871754693780504 0.0
C C 0.8039313882904175 1.158536922424737 0.5167662892994933 0.0
C C 0.782055606842316 1.225222362381242 0.8519068071530588 0.0
C C 0.7563298038300238 1.1848874450138325 0.9437713329662794 0.0
C C 0.7191909772006096 1.1465753054511811 1.036246917236304 0.0
H H 0.7206409772006096 1.108745305451181 1.008296917236304 0.0
C C 0.739511320656411 1.1437816161290946 1.1280326129306466 0.0
C C 0.7658199308539062 1.2212370131115913 1.14230774752387 0.0
C C 0.735216591022793 1.274242957287296 1.1017927952011033 0.0
H H 0.7534665910227931 1.310822957287296 1.128642795201103 0.0
C C 0.7237881511527869 1.2994134082800175 1.017907939662973 0.0
H H 0.6965381511527869 1.3322834082800177 0.983857939662973 0.0
C C 0.7617425731212665 1.1166451205493166 1.1568875370691682 0.0
H H 0.7737825731212664 1.0803151205493167 1.1254375370691683 0.0
C C 0.8439436213277955 1.0956295480255251 1.290727114103919 0.0
H H 0.8421736213277954 1.0618995480255253 1.332267114103919 0.0
C C 0.7657800893927738 1.1546924450930907 1.360139650673219 0.0
C C 0.7530348327362426 1.2069882492094781 1.3071825389409135 0.0
H H 0.7667848327362425 1.2430582492094782 1.3388425389409135 0.0
C C 0.926211270399555 1.1573359868923805 0.6852519674568563 0.0
C C 0.761713371519451 1.00391570068246 0.7136754925977189 0.0
H H 0.785953371519451 1.03388570068246 0.7572154925977189 0.0
C C 0.767887366626064 0.9406971797657439 0.8571500097285842 0.0
H H 0.7878173666260639 0.9323571797657437 0.9261900097285842 0.0
C C 0.8117591262516165 0.9023818350289425 0.7026729891806429 0.0
H H 0.8345991262516166 0.8642518350289425 0.7156129891806429 0.0
C C 0.71675982071417 0.9362650202440035 0.6737530063623696 0.0
C C 0.7140357572702848 1.0157261378590725 0.6192009800530935 0.0
C C 0.6010638840179563 1.0111043413273564 0.5131356847209116 0.0
H H 0.5796138840179563 1.0496743413273564 0.5017756847209116 0.0
C C 0.6023514137875717 0.9810650959806319 0.49174967992469726 0.0
H H 0.5759814137875718 0.9940250959806318 0.4271796799246972 0.0
C C 0.5509932196633368 0.935967260360017 0.5308141604761218 0.0
H H 0.5187232196633368 0.9077272603600168 0.4883541604761218 0.0
C C 0.6327315165198083 0.924798051711913 0.5921720640896991 0.0
C C 0.564043400404846 0.8073724594412105 0.7221169604853743 0.0
C C 0.7596459136394998 0.8407623212922295 0.5510019357867577 0.0
C C 0.7745600304537519 0.7471512647434956 0.611386758156621 0.0
C C 0.862524132058564 0.6916617705310755 0.6618695047566958 0.0
H H 0.916854132058564 0.7122117705310753 0.6290895047566958 0.0
C C 0.8836335658175483 0.6699581882572968 0.6038872940455057 0.0
H H 0.9530635658175481 0.6577881882572968 0.6135972940455056 0.0
C C 0.8408456802436433 0.6260103206505991 0.6388294192592112 0.0
C C 0.7392688246520275 0.648640364763926 0.6612016251277054 0.0
C C 0.7418052566262018 0.7442216628985461 0.6509309459631828 0.0
C C 0.5611745401773263 0.7201996588079583 0.6468295638655044 0.0
C C 0.5169428740504703 0.6839137133364184 0.6162612474104794 0.0
H H 0.4492928740504703 0.6992837133364183 0.6234012474104794 0.0
C C 0.5522078273433731 0.6504131087542869 0.6886981019818521 0.0
H H 0.4993378273433732 0.6261731087542868 0.7152281019818523 0.0
C C 0.6114985180506595 0.6310876686341794 0.7198043189636811 0.0
C C 0.5500570202349196 0.5647335687334448 0.576048203970134 0.0
C C 0.7713962531857979 0.598334673613843 0.70293918596547 0.0
C C 0.823166473174361 0.477547495025947 0.7020339774018045 0.0
C C 0.7633727920250026 0.47752759517762644 0.8386666639034001 0.0
H H 0.7727927920250025 0.5107775951776266 0.8801766639034002 0.0
C C 0.847880501293869 0.3988820736090991 0.7989074297333076 0.0
H H 0.8875635012938691 0.39149207360909904 0.8592914297333075 0.0
C C 0.8393707905319212 0.3708237095255345 0.8305440840668388 0.0
H H 0.8256807905319212 0.33216370952553453 0.8500340840668388 0.0
C C 0.7891781874722514 0.383000702866384 0.6234349063146433 0.0
C C 0.7726669755017473 0.40917062169344215 0.5873524884664326 0.0
C C 0.7488000910016613 0.4474108240043453 0.5593150996396016 0.0
H H 0.7395300910016613 0.48607082400434526 0.5378450996396015 0.0
C C 0.6532597662805557 0.394111632367219 0.48525249170413565 0.0
H H 0.6135997662805557 0.39847163236721905 0.4238924917041357 0.0
C C 0.6704674500063478 0.3264625234344548 0.4871805763541223 0.0
H H 0.6663774500063476 0.2980025234344548 0.43430057635412234 0.0
N N 0.7311293428250283 1.011275155414169 0.7801818190088539 0.0
N N 0.7234170286640597 0.8374542391231826 0.5536080778990368 0.0
N N 0.7510694017942424 0.5436844552463416 0.6551206962080456 0.0
N N 0.7726890491984948 0.3261815920891909 0.5828740121108746 0.0
O O 0.6071998127550166 1.1318727015493308 0.6714381361158736 0.0
O O 0.5436745077105113 1.211835491043646 0.6646184066956613 0.0
O O 0.7950687874629555 1.108164449477256 0.49578458436641487 0.0
O O 0.7617652537447558 1.2578031501880231 0.4599838822364852 0.0
O O 0.7387350477928445 1.1264849570969773 0.7873392738043397 0.0
O O 0.7717241785461563 1.255287053681193 0.8644965753151197 0.0
O O 0.8978186936704622 1.1685453948437152 0.6643096816161342 0.0
O O 0.9079503782498842 1.209628055930367 0.6458290987899576 0.0
O O 0.7983074308239178 0.8494423495014972 0.528420512124556 0.0
O O 0.5135128980563849 0.8534554793922484 0.6559704822970454 0.0
O O 0.8286146627358698 0.5474527636031495 0.7371499137090066 0.0
O O 0.5068399697881613 0.5432611380270418 0.6421782111716308 0.0
Zn Zn 0.7157463171921001 1.2348904502962539 0.641745213226115 0.0
Zn Zn 0.7272188671224664 1.1370793931396566 0.6440367018679966 0.0
C C -0.4674802802929204 1.665370066940242 -0.6329197926249136 0.0
C C -0.45892733990027146 1.6970274675761565 -0.6110216555428978 0.0
C C -0.3607307876578153 1.6513039648647474 -0.6860927716794021 0.0
H H -0.39408078765781535 1.6148739648647474 -0.683542771679402 0.0
C C -0.24736064719139225 1.661450606945928 -0.630558901197623 0.0
C C -0.2059473961260693 1.75229653966099 -0.6664991705073465 0.0
C C -0.3075093220255219 1.7992280835990637 -0.6621088581618237 0.0
H H -0.2772593220255219 1.8363980835990636 -0.6645688581618239 0.0
C C -0.4204190797266233 1.760512324980613 -0.6674396800356126 0.0
H H -0.4656690797266233 1.792582324980613 -0.6660896800356126 0.0
C C -0.15160386042132154 1.585505178517284 -0.6905114566594782 0.0
H H -0.17794386042132151 1.5476751785172842 -0.6824514566594784 0.0
C C -0.07411891793705845 1.6055249474878062 -0.6507688606235792 0.0
H H -0.031568917937058454 1.5726849474878062 -0.6615188606235791 0.0
C C -0.036073637750814486 1.686098771139183 -0.7479584968846698 0.0
C C -0.12997132574027495 1.6743599976342116 -0.6466562543478709 0.0
H H -0.10252132574027495 1.7122299976342117 -0.6444062543478708 0.0
C C -0.7233311208539411 1.6651940745955085 -0.45540261407991217 0.0
C C -0.741326186968837 1.6867399500182405 -0.8674967268459228 0.0
C C -0.8246468398500386 1.6740825784172522 -0.9673652922800677 0.0
C C -0.7121059299016983 1.6539502550537721 -1.0629934939746553 0.0
H H -0.7135559299016981 1.6161202550537723 -1.0350434939746553 0.0
C C -0.7102489832263637 1.6511736156864418 -1.1605844487076016 0.0
C C -0.7242689166913868 1.7161341410865008 -1.1591178810859621 0.0
C C -0.7646832641590198 1.7713949553181065 -1.078831779985085 0.0
H H -0.7829332641590199 1.8079749553181068 -1.105681779985085 0.0
C C -0.6947776496614972 1.7655348601617156 -1.0562935086699607 0.0
H H -0.6675276496614972 1.7984048601617157 -1.0222435086699608 0.0
C C -0.8185454461541873 1.617121293592766 -1.2159085392179116 0.0
H H -0.8305854461541873 1.5807912935927657 -1.1844585392179117 0.0
C C -0.7444153171667307 1.579602312358751 -1.2967671266630623 0.0
H H -0.7426453171667307 1.5458723123587512 -1.3383071266630624 0.0
C C -0.7244318066556111 1.6536857725756842 -1.3403518285830356 0.0
C C -0.776438285503227 1.7295761179170535 -1.2877880957648367 0.0
H H -0.790188285503227 1.7656461179170535 -1.3194480957648367 0.0
C C -0.8986784385062 1.6756238300951516 -0.6408381144814802 0.0
C C -0.7488937315341695 1.5062737868248808 -0.8919315905717979 0.0
H H -0.7731337315341694 1.5362437868248808 -0.935471590571798 0.0
C C -0.7638386636485562 1.4402306140845236 -0.8272643945282898 0.0
H H -0.7837686636485562 1.4318906140845236 -0.8963043945282898 0.0
C C -0.7289084878741191 1.4088430443048925 -0.6948424924181582 0.0
H H -0.7517484878741193 1.3707130443048927 -0.7077824924181582 0.0
C C -0.7098810066491213 1.4343721830210507 -0.6985661156325496 0.0
C C -0.7154327138008576 1.4712240713258056 -0.6441282870625571 0.0
C C -0.603410633494736 1.509519016517083 -0.5346916961033185 0.0
H H -0.5819606334947363 1.5480890165170833 -0.5233316961033184 0.0
C C -0.5834007570610805 1.4068601127178793 -0.5179994810541179 0.0
H H -0.5570307570610807 1.4198201127178791 -0.45342948105411784 0.0
C C -0.5691379055222567 1.4252439472409206 -0.5037758307759183 0.0
H H -0.5368679055222566 1.397003947240921 -0.46131583077591826 0.0
C C -0.6476750144588581 1.3706898068448767 -0.5516294644273337 0.0
C C -0.6084781176565276 1.3043876513175638 -0.5885120491831772 0.0
C C -0.8044373804789112 1.3127843674209934 -0.5489985246454839 0.0
C C -0.7527620577502188 1.2637315571770449 -0.6040041751422922 0.0
C C -0.8466195003742412 1.198722277483247 -0.654045150800711 0.0
H H -0.900949500374241 1.2192722774832467 -0.6212651508007111 0.0
C C -0.8984233164273142 1.215835859103712 -0.6769625378234165 0.0
H H -0.9678533164273142 1.203665859103712 -0.6866725378234164 0.0
C C -0.8088291339422368 1.1306316999974029 -0.6167888187798124 0.0
C C -0.7076310685283967 1.1646706074929176 -0.6684426925425841 0.0
C C -0.6647842541647672 1.2042990791846633 -0.5856703524452208 0.0
C C -0.5834356357379148 1.2278790506457402 -0.6281852631254861 0.0
C C -0.5018625818442337 1.233449748658841 -0.7561872962036492 0.0
H H -0.43421258184423367 1.248819748658841 -0.7633272962036493 0.0
C C -0.5259037171615982 1.1615784084410108 -0.5700530579634038 0.0
H H -0.47303371716159814 1.137338408441011 -0.5965830579634038 0.0
C C -0.6787379007271845 1.1419865996960663 -0.6934170401576458 0.0
C C -0.6079401819052577 1.0333598468769607 -0.680501140524579 0.0
C C -0.8646215655148259 1.0641651006609756 -0.6378066041895267 0.0
C C -0.8021454266842769 1.001349566111646 -0.7130011729417625 0.0
C C -0.8173782537490809 0.9766061838229719 -0.7095511896359434 0.0
H H -0.8267982537490809 1.0098561838229723 -0.7510611896359436 0.0
C C -1.0381695405903382 0.7964600238736139 -0.9044532205536433 0.0
H H -1.077852540590338 0.7890700238736139 -0.9648372205536432 0.0
C C -0.822600287641709 0.8546427906821831 -0.7636203757564007 0.0
H H -0.808910287641709 0.8159827906821832 -0.7831103757564006 0.0
C C -0.7700866639907062 0.8790329922351471 -0.6619660046771091 0.0
C C -0.7305710863189376 0.9612275369126257 -0.5982067907248908 0.0
C C -0.6836571521460243 0.9578943923944322 -0.5059231891176537 0.0
H H -0.6743871521460243 0.9965543923944322 -0.4844531891176536 0.0
C C -0.6431625439106463 0.9221646335970849 -0.5616401762364043 0.0
H H -0.6035025439106462 0.9265246335970849 -0.5002801762364043 0.0
C C -0.7033730421897995 0.8848777294700448 -0.5410892103291167 0.0
H H -0.6992830421897993 0.8564177294700448 -0.4882092103291167 0.0
N N -0.6973832317347359 1.5159144900278159 -0.6379879060354876 0.0
N N -0.7186388215275478 1.3427920006957677 -0.6643720108705369 0.0
N N -0.7686060686863491 1.0186936830621378 -0.7419205885296759 0.0
N N -0.7344004985466721 0.8627544719549123 -0.5646174741087499 0.0
O O -0.5729642187034486 1.6368178086104914 -0.7209003247182164 0.0
O O -0.5497158219284008 1.724273069676175 -0.5954304463538422 0.0
O O -0.6897449539289616 1.6269289779781462 -0.5064336789452412 0.0
O O -0.7949170403621882 1.6940319408303426 -0.5661622549541233 0.0
O O -0.6720564575450024 1.6318053717566785 -0.8416529860260374 0.0
O O -0.7954542882420175 1.6826857840324063 -0.8464558298382578 0.0
O O -0.8898640172480927 1.6270941203478244 -0.7163671721925986 0.0
O O -0.8972935996093664 1.7435431881052301 -0.7102969439728519 0.0
O O -0.8535429463583158 1.3558618757789584 -0.5847558151635007 0.0
O O -0.449875305751965 1.3303650092554857 -0.6046724786545212 0.0
O O -0.9700333823904641 1.0289102966620742 -0.6973137855664849 0.0
O O -0.6663972101957291 0.9898641435261407 -0.7096384432884824 0.0
Zn Zn -0.7278446272772687 1.75134491477243 -0.6278604166463252 0.0
Zn Zn -0.7065418684595259 1.6288025575956178 -0.67168215199379 0.0
