_cell_length_a 12.935
_cell_length_b 23.242012
_cell_length_c 12.93505
_cell_angle_alpha 90.0
_cell_angle_beta 90.0
_cell_angle_gamma 90.0
_symmetry_space_group_name_H-M         'P 1'
_symmetry_Int_Tables_number            1
loop_
_symmetry_equiv_pos_as_xyz
   'x, y, z'
                         
loop_
_atom_site_label
_atom_site_type_symbol
_atom_site_fract_x 
_atom_site_fract_y
_atom_site_fract_z
_atom_site_charge
C C 0.6187842549079514 1.1711610154595327 0.5359992160739736 0.0
C C 0.4418565305373906 1.192584030640406 0.655599286967045 0.0
C C 0.3816101029098528 1.149660941947768 0.5632321869745693 0.0
H H 0.41496010290985286 1.113230941947768 0.5606821869745694 0.0
C C 0.23462070166410517 1.1455020765195314 0.615746536025647 0.0
C C 0.2653527962876418 1.1926573584551239 0.6335839784808799 0.0
C C 0.3079417159859978 1.2675813822745443 0.6135346206099269 0.0
H H 0.2776917159859978 1.3047513822745442 0.6159946206099269 0.0
C C 0.4024102812008305 1.2611134157078971 0.6576060313818775 0.0
H H 0.4476602812008304 1.2931834157078972 0.6562560313818775 0.0
C C 0.21229153255080632 1.110265485808036 0.6272072511770543 0.0
H H 0.23863153255080624 1.072435485808036 0.6191472511770544 0.0
C C 0.06859549979758965 1.094846563531227 0.7160877404419642 0.0
H H 0.026045499797589664 1.062006563531227 0.7268377404419641 0.0
C C 0.030529767200490616 1.199104855299926 0.6261222706524656 0.0
C C 0.12055720322222052 1.2333974015238487 0.6493733470524965 0.0
H H 0.09310720322222053 1.2712674015238488 0.6471233470524964 0.0
C C 0.7155162787515656 1.1709360935189166 0.4868937900509872 0.0
C C 0.6422421040660451 1.1882022306151634 0.860686785342915 0.0
C C 0.6161133998413283 1.2234908309067285 0.9675187135600912 0.0
C C 0.711540477472283 1.1450841832195549 0.9996210423684899 0.0
H H 0.712990477472283 1.1072541832195548 0.97167104236849 0.0
C C 0.7598979073168469 1.1721257716263342 1.1240614049334359 0.0
C C 0.8066517515155563 1.199333354895376 1.1534141946844219 0.0
C C 0.7266977977835581 1.2530760849927518 1.0537727688207181 0.0
H H 0.7449477977835582 1.2896560849927519 1.0806227688207182 0.0
C C 0.7519204238548841 1.241133038547449 1.0108912666160736 0.0
H H 0.7246704238548841 1.274003038547449 0.9768412666160737 0.0
C C 0.8024460510305913 1.109079026966134 1.195461082235067 0.0
H H 0.8144860510305914 1.072749026966134 1.164011082235067 0.0
C C 0.8181556375289047 1.0919530976670864 1.287225417490635 0.0
H H 0.8163856375289047 1.0582230976670863 1.3287654174906351 0.0
C C 0.7433321991167381 1.1743076780167245 1.3717791792920013 0.0
C C 0.8077882648040982 1.1966456857417345 1.2749700265691906 0.0
H H 0.8215382648040981 1.2327156857417345 1.3066300265691904 0.0
C C 0.9489282774245574 1.1441345123548337 0.6341497253868906 0.0
C C 0.7508273713484319 1.0205172895256063 0.7229805235559993 0.0
H H 0.775067371348432 1.0504872895256063 0.7665205235559993 0.0
C C 0.7566523484822211 0.959353981458586 0.7626669167784428 0.0
H H 0.7765823484822211 0.951013981458586 0.8317069167784428 0.0
C C 0.7492911873859217 0.9366092858208943 0.7371896086728645 0.0
H H 0.7721311873859219 0.8984792858208943 0.7501296086728645 0.0
C C 0.6950174391933386 0.940169501077657 0.661736972457689 0.0
C C 0.6518749577114474 1.0312467622758492 0.6019617145137974 0.0
C C 0.5990643482012071 1.0240096089936395 0.5061721701642211 0.0
H H 0.5776143482012073 1.0625796089936395 0.4948121701642212 0.0
C C 0.5382478919638597 0.9845557328589103 0.46700923811553496 0.0
H H 0.5118778919638599 0.9975157328589104 0.40243923811553495 0.0
C C 0.5534275676990961 0.8921455051937816 0.45980933164300913 0.0
H H 0.521157567699096 0.8639055051937814 0.4173493316430092 0.0
C C 0.7299296064060511 0.8641942773044945 0.5900768390536224 0.0
C C 0.5680533799975617 0.8085161132879247 0.6060993516099862 0.0
C C 0.7937249495953174 0.8143402343008104 0.5718275775303713 0.0
C C 0.7613399464101158 0.7738686175067441 0.5812544981924608 0.0
C C 0.8705316069203329 0.7262172910370557 0.6358020222986918 0.0
H H 0.9248616069203329 0.7467672910370556 0.6030220222986918 0.0
C C 0.9037769846653789 0.6922562860030098 0.5480852013230082 0.0
H H 0.9732069846653789 0.6800862860030098 0.5577952013230081 0.0
C C 0.7706242746745556 0.6009898279815447 0.641839787233238 0.0
C C 0.7045862623593343 0.6839010927930471 0.6657592276601487 0.0
C C 0.6842677406515763 0.7119279253351405 0.6742164570902693 0.0
C C 0.5963055507365582 0.7495699319811476 0.6214835217526291 0.0
C C 0.4641389299463365 0.681124834925844 0.6953404804001347 0.0
H H 0.3964889299463365 0.6964948349258439 0.7024804804001348 0.0
C C 0.5712945476493199 0.6376309755212995 0.7321758605525328 0.0
H H 0.5184245476493199 0.6133909755212994 0.7587058605525329 0.0
C C 0.6566483032411754 0.6235198353988475 0.7179612475170607 0.0
C C 0.5766095620284392 0.5201255339342904 0.6774750423935828 0.0
C C 0.844897329431953 0.5651652665444968 0.7139598776035609 0.0
C C 0.8474035618797716 0.46414146130443257 0.6835811762268162 0.0
C C 0.8590354795049212 0.4746767615845505 0.8042891002546241 0.0
H H 0.8684554795049211 0.5079267615845505 0.8457991002546241 0.0
C C 0.7965840674458331 0.4131475262871621 0.8553681180417034 0.0
H H 0.836267067445833 0.4057575262871621 0.9157521180417034 0.0
C C 0.8268676081305896 0.37327084226515794 0.8678292797637104 0.0
H H 0.8131776081305895 0.33461084226515797 0.8873192797637102 0.0
C C 0.7656412113283684 0.38022104978430155 0.6354405555936791 0.0
C C 0.7547784531657995 0.40939028783523357 0.5861266928405673 0.0
C C 0.6501984499942854 0.4356500882073118 0.5352730685270589 0.0
H H 0.6409284499942856 0.4743100882073118 0.5138030685270588 0.0
C C 0.6091734534015346 0.42123220044871923 0.5457833795153156 0.0
H H 0.5695134534015345 0.42559220044871926 0.4844233795153157 0.0
C C 0.7131458304060909 0.3012099828288088 0.4839706961587226 0.0
H H 0.7090558304060908 0.2727499828288088 0.4310906961587226 0.0
N N 0.7280459766820293 1.0358585452317381 0.6908034751010785 0.0
N N 0.7051029393807209 0.8422942864298689 0.5699455039452554 0.0
N N 0.8154842389260022 0.5892074737273051 0.7257493704726196 0.0
N N 0.7431977559379369 0.33176227140758874 0.6162264131613957 0.0
O O 0.5693989418920472 1.1527221145915831 0.6309826502873868 0.0
O O 0.5585310842247313 1.2173912480203075 0.611728914110593 0.0
O O 0.7724107008965433 1.1203643595521573 0.48823461419525904 0.0
O O 0.7088431547555236 1.2479096216457823 0.5150971373056904 0.0
O O 0.6938342595152898 1.1441433618480668 0.792521359906868 0.0
O O 0.849972799827122 1.2401825171663234 0.8460840452382885 0.0
O O 0.8516805071005454 1.120005956222181 0.7335326785846313 0.0
O O 0.8853415365421058 1.1939759343272736 0.6288166809575303 0.0
O O 0.8717323619525726 0.8649631115146659 0.5551510215073318 0.0
O O 0.5463199886185852 0.8282101849756582 0.6010646277747369 0.0
O O 0.8990952723407337 0.5478066656212252 0.6367134958111582 0.0
O O 0.5335901892861631 0.5482053124375577 0.6423048358404824 0.0
Zn Zn 0.7692275080482015 1.25756031901911 0.6587262883544668 0.0
Zn Zn 0.6936306242182056 1.1233093074747136 0.6270519452377941 0.0
C C -0.5336718490224605 1.6603239139494614 -0.6615987557053689 0.0
C C -0.4240907522911801 1.7319559486561276 -0.651120235844805 0.0
C C -0.3355153455814746 1.6450117592075764 -0.6567381443851205 0.0
H H -0.3688653455814746 1.6085817592075764 -0.6541881443851204 0.0
C C -0.2564062531949006 1.644869989862269 -0.6319016368088208 0.0
C C -0.23471807449014168 1.7334702573131935 -0.694235993538167 0.0
C C -0.25190252482519054 1.7918541304885263 -0.6832626716951158 0.0
H H -0.22165252482519052 1.8290241304885262 -0.6857226716951158 0.0
C C -0.4098088852989203 1.755920388887885 -0.6409072517657323 0.0
H H -0.45505888529892025 1.787990388887885 -0.6395572517657323 0.0
C C -0.19549312886719813 1.6123361767224704 -0.7225131289210194 0.0
H H -0.2218331288671981 1.5745061767224704 -0.7144531289210195 0.0
C C -0.1343670890759311 1.5952965928712701 -0.6698076777757721 0.0
H H -0.09181708907593107 1.5624565928712701 -0.680557677775772 0.0
C C -0.08842366356927384 1.6623039024802095 -0.7023597451713075 0.0
C C -0.09884461087272738 1.7158887121951636 -0.6720423147510719 0.0
H H -0.0713946108727274 1.7537587121951634 -0.6697923147510717 0.0
C C -0.8031526343284358 1.6510236807668524 -0.3985716861057396 0.0
C C -0.7524266221401479 1.6781268799344349 -0.8975163149782225 0.0
C C -0.7305090873455483 1.7093517683936281 -0.8952918149904412 0.0
C C -0.7179021154840337 1.6260615728600674 -1.037869127765183 0.0
H H -0.7193521154840335 1.5882315728600673 -1.0099191277651831 0.0
C C -0.7165243514186629 1.6720734273221256 -1.1093444254919527 0.0
C C -0.7634490064866307 1.7120422519116605 -1.168723613237428 0.0
C C -0.7439239541791391 1.7687688722301487 -1.138017580633072 0.0
H H -0.7621739541791392 1.8053488722301487 -1.164867580633072 0.0
C C -0.6779547900331208 1.7657088159209133 -1.029342115430897 0.0
H H -0.6507047900331208 1.7985788159209135 -0.9952921154308971 0.0
C C -0.6850140884811974 1.60733300590474 -1.161094594545061 0.0
H H -0.6970540884811973 1.5710030059047397 -1.129644594545061 0.0
C C -0.7295409149820372 1.6061309962880148 -1.2968926679172117 0.0
H H -0.7277709149820372 1.5724009962880148 -1.3384326679172118 0.0
C C -0.7569741835392089 1.6581785351996752 -1.3243370367377794 0.0
C C -0.7464206861267576 1.699039205599609 -1.2509408817849164 0.0
H H -0.7601706861267575 1.735109205599609 -1.2826008817849164 0.0
C C -0.9490458956937814 1.684261120872361 -0.6834177747193088 0.0
C C -0.8081843027992553 1.501088343254583 -0.8201141629205945 0.0
H H -0.8324243027992553 1.531058343254583 -0.8636541629205944 0.0
C C -0.7718110554920243 1.490912188732935 -0.8079607049447696 0.0
H H -0.7917410554920243 1.482572188732935 -0.8770007049447697 0.0
C C -0.7326906384501913 1.4391079037328134 -0.8141695599618215 0.0
H H -0.7555306384501915 1.4009779037328134 -0.8271095599618215 0.0
C C -0.6653306615898283 1.4210829482341953 -0.7203815150746523 0.0
C C -0.7333796841945811 1.478728477340935 -0.667765256244543 0.0
C C -0.6098305584431744 1.5358663911890587 -0.5040358099779665 0.0
H H -0.5883805584431744 1.5744363911890589 -0.49267580997796656 0.0
C C -0.5392463871346094 1.5070579139261604 -0.5049577530823344 0.0
H H -0.5128763871346096 1.5200179139261603 -0.4403877530823343 0.0
C C -0.6218248097991773 1.372519205954669 -0.5083808386832648 0.0
H H -0.5895548097991772 1.3442792059546693 -0.4659208386832647 0.0
C C -0.6572272504764148 1.3693046441706964 -0.6189434250264031 0.0
C C -0.5874566859209825 1.354277170044192 -0.5937707612377676 0.0
C C -0.6931536486227389 1.2945835739818787 -0.5730597083362505 0.0
C C -0.7826989317676079 1.264156988725439 -0.560060878985811 0.0
C C -0.8299704396491288 1.2273635873801092 -0.654218232438348 0.0
H H -0.8843004396491286 1.247913587380109 -0.621438232438348 0.0
C C -0.8967460367486108 1.1622424537539124 -0.6008191960032367 0.0
H H -0.9661760367486107 1.1500724537539124 -0.6105291960032366 0.0
C C -0.8198396051330465 1.135412378244472 -0.6509903025733758 0.0
C C -0.7125483504497091 1.1614682320063654 -0.6820557871665718 0.0
C C -0.747738276697383 1.238025626808035 -0.5660221392923487 0.0
C C -0.5378750802430733 1.256289155455772 -0.5538241741435946 0.0
C C -0.5481522980783624 1.1963543485041397 -0.6610392569614397 0.0
H H -0.48050229807836237 1.21172434850414 -0.6681792569614398 0.0
C C -0.5317558321148149 1.1428739827920524 -0.681849519127662 0.0
H H -0.4788858321148149 1.1186339827920524 -0.7083795191276622 0.0
C C -0.628345412577538 1.1344560566927104 -0.6859556709870975 0.0
C C -0.5632763567415869 1.0631193119392968 -0.7008862294656067 0.0
C C -0.8141983179570657 1.0775081405834113 -0.6504650079054677 0.0
C C -0.7548763783376122 0.9743771410618941 -0.699247954972912 0.0
C C -0.795459141051008 0.9728935993905804 -0.8748737103429091 0.0
H H -0.8048791410510079 1.0061435993905807 -0.9163837103429092 0.0
C C -0.932815400816407 0.8724578651861958 -0.8728117614250823 0.0
H H -0.9724984008164069 0.8650678651861958 -0.9331957614250823 0.0
C C -0.8343546050600704 0.8192769564496806 -0.7835941097386551 0.0
H H -0.8206646050600704 0.7806169564496807 -0.803084109738655 0.0
C C -0.7880007461877939 0.8801070813297062 -0.6423584921514489 0.0
C C -0.7339838566931774 0.942332158684755 -0.6483368504746365 0.0
C C -0.633072744729362 0.9609704497409134 -0.541748272266093 0.0
H H -0.6238027447293621 0.9996304497409134 -0.520278272266093 0.0
C C -0.670814860450099 0.9104859459687996 -0.46627912075716454 0.0
H H -0.6311548604500988 0.9148459459687995 -0.4049191207571646 0.0
C C -0.5945542875172302 0.8743273956800197 -0.4837238089397384 0.0
H H -0.59046428751723 0.8458673956800198 -0.4308438089397384 0.0
N N -0.7001050968094056 1.5307407363360652 -0.6981928533858511 0.0
N N -0.729584467148597 1.332076770752991 -0.6814611088733972 0.0
N N -0.750754425956948 1.0570135744900042 -0.6733482547229466 0.0
N N -0.7252350398039531 0.8160997771883566 -0.5535309737933509 0.0
O O -0.5333529343678374 1.6627717080223174 -0.6613233761886911 0.0
O O -0.6032089547450602 1.7435093581219168 -0.6157799188881816 0.0
O O -0.7821811331831534 1.6421518020727122 -0.51402682850114 0.0
O O -0.7025662721925736 1.6921685465670793 -0.4848370103127022 0.0
O O -0.6201125298522663 1.59849539991585 -0.767243857463914 0.0
O O -0.7120993404252463 1.7699215258195282 -0.7670304625603487 0.0
O O -0.8845749203549386 1.6457998963708345 -0.6421181413956076 0.0
O O -0.9202658408887665 1.7184452075826913 -0.5960266541532564 0.0
O O -0.8107840810343669 1.3397317266159312 -0.649404254273647 0.0
O O -0.4675778044918631 1.337980264368074 -0.6257082338882769 0.0
O O -0.9238511984717424 1.0609527488315482 -0.6473674278282057 0.0
O O -0.5289068772370871 1.0093012959529568 -0.7228299326403895 0.0
Zn Zn -0.7560804277373345 1.7506251947391218 -0.6307820806360754 0.0
Zn Zn -0.6439025363364027 1.5607832922482137 -0.6640753035390226 0.0
