_cell_length_a 12.935
_cell_length_b 23.242012
_cell_length_c 12.93505
_cell_angle_alpha 90.0
_cell_angle_beta 90.0
_cell_angle_gamma 90.0
_symmetry_space_group_name_H-M         'P 1'
_symmetry_Int_Tables_number            1
loop_
_symmetry_equiv_pos_as_xyz
   'x, y, z'
                         
loop_
_atom_site_label
_atom_site_type_symbol
_atom_site_fract_x 
_atom_site_fract_y
_atom_site_fract_z
_atom_site_charge
C C 0.5913064120631438 1.166211510479075 0.5966727090232591 0.0
C C 0.44018637408932654 1.2172341528928323 0.5907975459795212 0.0
C C 0.3471643645664957 1.1402238972549126 0.6156838034577756 0.0
H H 0.38051436456649573 1.1037938972549126 0.6131338034577757 0.0
C C 0.2240838697677748 1.1731008550153033 0.645583954842692 0.0
C C 0.18709366570142488 1.1771553424404255 0.6766981124715 0.0
C C 0.2957336991955575 1.2538393173514033 0.6823946185560883 0.0
H H 0.2654836991955574 1.2910093173514032 0.6848546185560883 0.0
C C 0.3969137339428114 1.257595217849854 0.6280914774735865 0.0
H H 0.4421637339428113 1.289665217849854 0.6267414774735866 0.0
C C 0.18050252477064616 1.0721352310841858 0.6494649942295326 0.0
H H 0.20684252477064607 1.0343052310841858 0.6414049942295328 0.0
C C 0.07666652872665768 1.1327948259482055 0.7073420691471816 0.0
H H 0.0341165287266577 1.0999548259482055 0.7180920691471815 0.0
C C 0.027436557073068676 1.1960572724441136 0.7213346098511795 0.0
C C 0.10547300174419229 1.221445465902477 0.6717589789511985 0.0
H H 0.0780230017441923 1.259315465902477 0.6695089789511984 0.0
C C 0.7877371338577837 1.1951670626268749 0.46723133302826697 0.0
C C 0.7104179986569088 1.1917466951505726 0.8455552854876563 0.0
C C 0.7417883172969671 1.1702159779788448 0.9484554622923337 0.0
C C 0.7212779600917341 1.1364875728640875 1.0382256288078593 0.0
H H 0.7227279600917339 1.0986575728640873 1.0102756288078594 0.0
C C 0.7119734564237693 1.1441941225910917 1.1190872974854915 0.0
C C 0.8261514396599307 1.2044659005301315 1.1676856762438146 0.0
C C 0.7560325213660939 1.2588789037741819 1.063450534129463 0.0
H H 0.774282521366094 1.295458903774182 1.0903005341294632 0.0
C C 0.743882379037046 1.271239827831494 1.021379582489552 0.0
H H 0.716632379037046 1.304109827831494 0.9873295824895518 0.0
C C 0.7579466555810017 1.110317152695694 1.2405434731182974 0.0
H H 0.7699866555810017 1.0739871526956941 1.2090934731182974 0.0
C C 0.8297168880302535 1.1191893229262675 1.304813528148667 0.0
H H 0.8279468880302534 1.0854593229262677 1.3463535281486672 0.0
C C 0.7008238774544174 1.188422404039624 1.4048740411824017 0.0
C C 0.7613220586704778 1.202515429556282 1.3014362869989509 0.0
H H 0.7750720586704777 1.2385854295562821 1.3330962869989509 0.0
C C 0.9525185447317673 1.1900937596836665 0.6606039644377006 0.0
C C 0.6756801346484069 0.9980804955791234 0.8045975903402647 0.0
H H 0.6999201346484069 1.0280504955791234 0.8481375903402647 0.0
C C 0.6976675362198226 0.9711856445814071 0.8305651590611882 0.0
H H 0.7175975362198226 0.962845644581407 0.8996051590611882 0.0
C C 0.7645302208413922 0.9182339657494284 0.7107040638514943 0.0
H H 0.7873702208413924 0.8801039657494284 0.7236440638514943 0.0
C C 0.6635973644429886 0.9161026732938573 0.6288805693215243 0.0
C C 0.6857987179646182 0.9972426158409101 0.6321389797669813 0.0
C C 0.7094697955010871 1.031422754763717 0.48450341457258 0.0
H H 0.6880197955010872 1.069992754763717 0.47314341457258 0.0
C C 0.5832500067512029 1.0025801967490555 0.45413766473478095 0.0
H H 0.5568800067512031 1.0155401967490556 0.38956766473478094 0.0
C C 0.561631066494742 0.9280791892222656 0.45308025808782154 0.0
H H 0.529361066494742 0.8998391892222655 0.41062025808782154 0.0
C C 0.6595533525776914 0.8942419408828703 0.5325402109454682 0.0
C C 0.6101139354373821 0.8012176901165046 0.5383948660515601 0.0
C C 0.7231255316060693 0.8324415410896799 0.5483109965438472 0.0
C C 0.7264333391235641 0.7964248199039415 0.5584202089473245 0.0
C C 0.7875533821041023 0.7230101297976887 0.599796978879037 0.0
H H 0.8418833821041022 0.7435601297976886 0.567016978879037 0.0
C C 0.8560277598189434 0.6929320124273753 0.6685809075156242 0.0
H H 0.9254577598189434 0.6807620124273753 0.6782909075156242 0.0
C C 0.7884639756680312 0.6675492488636063 0.6467378709348736 0.0
C C 0.735322674129565 0.6443226397679995 0.6910323179187902 0.0
C C 0.6838496821810526 0.7212650689017535 0.6533083028244714 0.0
C C 0.5933427930237358 0.7576594538205764 0.5926492320599115 0.0
C C 0.5264299752249563 0.7358463437435742 0.6527238631325429 0.0
H H 0.4587799752249562 0.7512163437435742 0.659863863132543 0.0
C C 0.508482199821758 0.6516646681087709 0.6484840765187806 0.0
H H 0.455612199821758 0.6274246681087708 0.6750140765187806 0.0
C C 0.605701470978963 0.6138805081229693 0.6868120522224033 0.0
C C 0.634414837268554 0.5527772349244885 0.5863073608316063 0.0
C C 0.7540279122250895 0.567802526359742 0.6635502641701448 0.0
C C 0.7780098032032055 0.4878307881372385 0.6922070488150142 0.0
C C 0.7674659735007787 0.44502528016328374 0.9055050611276604 0.0
H H 0.7768859735007786 0.47827528016328374 0.9470150611276605 0.0
C C 0.7900897847373461 0.3795280385466367 0.9757280635325393 0.0
H H 0.8297727847373462 0.37213803854663663 1.0361120635325392 0.0
C C 0.7767038975428936 0.3722749862291748 0.8150890998836936 0.0
H H 0.7630138975428936 0.33361498622917485 0.8345790998836935 0.0
C C 0.768811812291968 0.37435318770605897 0.6679944145218801 0.0
C C 0.7285455198056038 0.4396739395049098 0.6138064592410565 0.0
C C 0.770723600606916 0.4569269469523004 0.521285317190647 0.0
H H 0.7614536006069161 0.4955869469523004 0.499815317190647 0.0
C C 0.6278787535456006 0.36563577210363485 0.4892826266433853 0.0
H H 0.5882187535456004 0.3699957721036349 0.4279226266433853 0.0
C C 0.6799454610362227 0.378232386340353 0.5010977908601935 0.0
H H 0.6758554610362225 0.349772386340353 0.4482177908601935 0.0
N N 0.7266663402110485 1.0372495865553422 0.7125103199329114 0.0
N N 0.6269061538676453 0.8676264489059969 0.6367194260374753 0.0
N N 0.7208267236695374 0.5685267197666497 0.7062404782613183 0.0
N N 0.6962856414863978 0.34541422177634395 0.5997154474696363 0.0
O O 0.5359785881861113 1.1711117665997959 0.6111612756716098 0.0
O O 0.6096769160862254 1.259266231911305 0.613705526803541 0.0
O O 0.7318882762766686 1.1530562676726437 0.5157225027722555 0.0
O O 0.7105827507898294 1.216875864388776 0.5228865124006656 0.0
O O 0.7513676981081396 1.1365040551495624 0.7668278683210112 0.0
O O 0.750553349796266 1.2105717073593374 0.8301478780882777 0.0
O O 0.8748718835875398 1.1649825541966765 0.6331048019795062 0.0
O O 0.9236839003656517 1.2172293534194376 0.7490041753875178 0.0
O O 0.840359341306677 0.8501477619997624 0.576062187862061 0.0
O O 0.5107508291637277 0.8294695536059123 0.723675022473025 0.0
O O 0.9092675635073217 0.5280398551428152 0.7215217142043537 0.0
O O 0.6104943213161278 0.551681053968555 0.7694564953488017 0.0
Zn Zn 0.7545596612523207 1.2768506514211062 0.6123168342853026 0.0
Zn Zn 0.6923906352842054 1.13675594963172 0.6597641413128199 0.0
C C -0.5204187178543447 1.6968044679764311 -0.620523211222782 0.0
C C -0.4716708178371268 1.6580758941476428 -0.6747939072733573 0.0
C C -0.36191821615949643 1.662256240667735 -0.6822699247120202 0.0
H H -0.3952682161594965 1.625826240667735 -0.6797199247120201 0.0
C C -0.24108241531108976 1.6726410487144259 -0.6406101268524007 0.0
C C -0.22182158345082936 1.700925188626072 -0.6565882530094768 0.0
C C -0.24984304977936936 1.7476807412976347 -0.6641886286970884 0.0
H H -0.2195930497793694 1.7848507412976347 -0.6666486286970884 0.0
C C -0.4230797591021408 1.7306141289300128 -0.64520161520497 0.0
H H -0.46832975910214075 1.7626841289300126 -0.64385161520497 0.0
C C -0.20208391689586866 1.6001238660104424 -0.6112325978064307 0.0
H H -0.22842391689586858 1.5622938660104426 -0.6031725978064308 0.0
C C -0.03136053834800018 1.5754903036293488 -0.559945828844121 0.0
H H 0.011189461651999804 1.5426503036293489 -0.570695828844121 0.0
C C -0.014007482570861323 1.6690273498169368 -0.7051275005229415 0.0
C C -0.08813084439794346 1.693743430026113 -0.6416167316930661 0.0
H H -0.060680844397943474 1.7316134300261128 -0.639366731693066 0.0
C C -0.7968388463279383 1.6651507641568275 -0.3588942041574914 0.0
C C -0.6865411753655325 1.6755927448043026 -0.863280870646393 0.0
C C -0.7041495861418696 1.7037624089648455 -0.9308531459750263 0.0
C C -0.7357976611745347 1.648378988386753 -1.0490452044137744 0.0
H H -0.7372476611745346 1.610548988386753 -1.0210952044137744 0.0
C C -0.6926561990281107 1.6382751640770612 -1.0949420188625332 0.0
C C -0.7233547687004723 1.6930802586343159 -1.1824184207925974 0.0
C C -0.7325222984131332 1.75529246828538 -1.097806824530567 0.0
H H -0.7507722984131333 1.7918724682853802 -1.124656824530567 0.0
C C -0.7178800905566374 1.7837158730608256 -1.0127397834279086 0.0
H H -0.6906300905566374 1.8165858730608258 -0.9786897834279087 0.0
C C -0.7594785782365145 1.6236371370139893 -1.1901139416393072 0.0
H H -0.7715185782365145 1.587307137013989 -1.1586639416393072 0.0
C C -0.6438023451189971 1.6299516427322833 -1.3513709162708205 0.0
H H -0.642032345118997 1.5962216427322833 -1.3929109162708206 0.0
C C -0.7649311290385693 1.669342950696822 -1.364592993465862 0.0
C C -0.8165068616215387 1.7359488046726523 -1.275217112631844 0.0
H H -0.8302568616215387 1.7720188046726524 -1.3068771126318437 0.0
C C -0.9006289394729028 1.70953562721697 -0.7117248660761499 0.0
C C -0.8199880272199341 1.5157683065921363 -0.7679873002689829 0.0
H H -0.8442280272199341 1.5457383065921364 -0.8115273002689829 0.0
C C -0.71341111039295 1.455266238919488 -0.758861937727141 0.0
H H -0.7333411103929499 1.4469262389194877 -0.827901937727141 0.0
C C -0.7308801308962173 1.4313057469137311 -0.7523838539477806 0.0
H H -0.7537201308962175 1.3931757469137314 -0.7653238539477806 0.0
C C -0.7070346629863572 1.4162710099904636 -0.6471804766929167 0.0
C C -0.6765788302976524 1.5105079862595334 -0.59297814225505 0.0
C C -0.6229930830034492 1.5071373274854065 -0.4902301938636092 0.0
H H -0.6015430830034494 1.5457073274854065 -0.47887019386360924 0.0
C C -0.6139379165613932 1.4584736587671725 -0.4061531019269648 0.0
H H -0.5875679165613933 1.4714336587671726 -0.3415831019269647 0.0
C C -0.57815031622049 1.4474007668429538 -0.4908836067384085 0.0
H H -0.5458803162204899 1.419160766842954 -0.4484236067384085 0.0
C C -0.6855524011349715 1.3769157588248226 -0.5858914996051947 0.0
C C -0.5709037490286393 1.3297710662496771 -0.6108073359051581 0.0
C C -0.8206949555006824 1.3059852545131545 -0.546775450158731 0.0
C C -0.8288993629426122 1.217088100959338 -0.579003795366605 0.0
C C -0.8865973925993679 1.2205527061980725 -0.609101786212534 0.0
H H -0.9409273925993678 1.2411027061980724 -0.5763217862125339 0.0
C C -0.9341444426929053 1.18011149042088 -0.5930094059827359 0.0
H H -1.0035744426929054 1.16794149042088 -0.6027194059827358 0.0
C C -0.7954035412554142 1.117021597898575 -0.6521359723592289 0.0
C C -0.6998312766326235 1.1494624539244827 -0.6959731682408468 0.0
C C -0.7044662772395943 1.2011265636634556 -0.6257360866894425 0.0
C C -0.628590481410611 1.2299688925977572 -0.6840481147369815 0.0
C C -0.5436941368782724 1.2042298101959072 -0.6801763628266783 0.0
H H -0.4760441368782723 1.2195998101959076 -0.6873163628266783 0.0
C C -0.48935955053234187 1.1733959286355669 -0.7403947398796237 0.0
H H -0.43648955053234184 1.1491559286355668 -0.7669247398796238 0.0
C C -0.5980355092535851 1.118837689860527 -0.5753778300316084 0.0
C C -0.6291126131008907 1.042386085315503 -0.6647807435517417 0.0
C C -0.8354210317075795 1.0859482848383817 -0.7117280816274044 0.0
C C -0.7907595027169213 0.9480379767376784 -0.6304993028014942 0.0
C C -0.8107801282660871 0.9758842984291742 -0.7791403138043032 0.0
H H -0.8202001282660872 1.0091342984291745 -0.8206503138043033 0.0
C C -1.006946923782093 0.8402309861556115 -0.9602186335675876 0.0
H H -1.046629923782093 0.8328409861556115 -1.0206026335675875 0.0
C C -0.8364562618190865 0.8528864431455916 -0.7195318913288677 0.0
H H -0.8227662618190865 0.8142264431455917 -0.7390218913288676 0.0
C C -0.7867520794444252 0.8812207455359625 -0.6540569632152239 0.0
C C -0.8090980833287323 0.9371442627892809 -0.6052771162544642 0.0
C C -0.7390726571715633 0.9556832112089634 -0.5809119817612091 0.0
H H -0.7298026571715635 0.9943432112089635 -0.559441981761209 0.0
C C -0.6451243426570911 0.9214889892207322 -0.4263430972144192 0.0
H H -0.605464342657091 0.9258489892207321 -0.36498309721441924 0.0
C C -0.6778560397777618 0.8500287695101857 -0.48077344892793006 0.0
H H -0.6737660397777617 0.8215687695101858 -0.42789344892793 0.0
N N -0.7248805836431103 1.5564012482497078 -0.7385680103571332 0.0
N N -0.6416479432846424 1.3414805251254607 -0.5727024062465386 0.0
N N -0.7256049463293077 1.0553682899549455 -0.6354675762705471 0.0
N N -0.7733887011779372 0.8641722709344493 -0.671560980087639 0.0
O O -0.5573907812891843 1.6200300301298085 -0.6152817269499351 0.0
O O -0.5641852551736234 1.695225508651376 -0.5952708540425441 0.0
O O -0.8219272539747993 1.6435282285647654 -0.47030968176597776 0.0
O O -0.7359980769467285 1.7460578951676118 -0.511788140051152 0.0
O O -0.7349275245857634 1.6817350994364804 -0.7980168350589208 0.0
O O -0.7675259580445951 1.7518675871845268 -0.7890047851142931 0.0
O O -0.8043042187951968 1.668867543723287 -0.6555569750944072 0.0
O O -0.9298918537121937 1.75941774063229 -0.626002932000887 0.0
O O -0.8621809223828384 1.3530839256521034 -0.5158349460924416 0.0
O O -0.4728505336792912 1.338642605083163 -0.6323957147473601 0.0
O O -0.9748800611484036 1.0709266292192507 -0.6529252721013672 0.0
O O -0.5296183401896615 1.04672273052019 -0.7448728828705894 0.0
Zn Zn -0.7179287171170481 1.7260064622373428 -0.6199843002429799 0.0
Zn Zn -0.6915191360220527 1.614060103549528 -0.6602203798863914 0.0
