_cell_length_a 12.935
_cell_length_b 23.242012
_cell_length_c 12.93505
_cell_angle_alpha 90.0
_cell_angle_beta 90.0
_cell_angle_gamma 90.0
_symmetry_space_group_name_H-M         'P 1'
_symmetry_Int_Tables_number            1
loop_
_symmetry_equiv_pos_as_xyz
   'x, y, z'
                         
loop_
_atom_site_label
_atom_site_type_symbol
_atom_site_fract_x 
_atom_site_fract_y
_atom_site_fract_z
_atom_site_charge
C C 0.5378186423856016 1.2104539846294002 0.629825988044255 0.0
C C 0.43082010825103445 1.1938058622912344 0.6144267985378805 0.0
C C 0.32381413604353854 1.1365534628729865 0.6614273457491064 0.0
H H 0.3571641360435386 1.1001234628729863 0.6588773457491064 0.0
C C 0.23927432175560204 1.1597887956067483 0.6346379147288338 0.0
C C 0.22415546133874792 1.171414813489321 0.70658442732436 0.0
C C 0.24544903599787535 1.2604916776667385 0.6272392790070641 0.0
H H 0.21519903599787538 1.2976616776667385 0.6296992790070641 0.0
C C 0.439028661924513 1.2727835751591168 0.6539789707148485 0.0
H H 0.4842786619245129 1.3048535751591166 0.6526289707148485 0.0
C C 0.21509404316004568 1.1018905948401272 0.6293761174136193 0.0
H H 0.2414340431600456 1.064060594840127 0.6213161174136194 0.0
C C 0.07236700853027926 1.1174161203024842 0.6709238049668328 0.0
H H 0.029817008530279285 1.0845761203024844 0.6816738049668328 0.0
C C 0.04369411919563724 1.1796730610531192 0.6976112747680538 0.0
C C 0.0832951795110566 1.2173919354220142 0.6843444315278147 0.0
H H 0.055845179511056615 1.2552619354220143 0.6820944315278146 0.0
C C 0.7802794746456511 1.165447433120819 0.4682141396456445 0.0
C C 0.7061832004963718 1.2196466164866193 0.9003892144491796 0.0
C C 0.6487747413959037 1.1725095132371568 0.9141332957279893 0.0
C C 0.7038161187988118 1.131258049718355 1.013898324405717 0.0
H H 0.7052661187988117 1.093428049718355 0.985948324405717 0.0
C C 0.7424882651891576 1.1792250362101677 1.1145478142471361 0.0
C C 0.6772114572932842 1.2161574040234526 1.1860058462522765 0.0
C C 0.7522818008453943 1.2729010285080276 1.090369268895586 0.0
H H 0.7705318008453944 1.3094810285080276 1.1172192688955858 0.0
C C 0.7127575907955304 1.2382012573662773 0.9647334052919524 0.0
H H 0.6855075907955304 1.2710712573662772 0.9306834052919524 0.0
C C 0.7390391569521673 1.1246727819735804 1.181014511399715 0.0
H H 0.7510791569521673 1.0883427819735805 1.1495645113997148 0.0
C C 0.7856603233381343 1.1177105849467843 1.3622630898822534 0.0
H H 0.7838903233381342 1.0839805849467843 1.4038030898822536 0.0
C C 0.6990183867420667 1.1644489454962033 1.3386949985426932 0.0
C C 0.6930577677311281 1.2068018157705775 1.3038188456922128 0.0
H H 0.7068077677311281 1.2428718157705776 1.3354788456922129 0.0
C C 0.938312849643437 1.1744377231357201 0.6477484023461323 0.0
C C 0.8254962322947784 1.026284389857453 0.7509793192912945 0.0
H H 0.8497362322947783 1.056254389857453 0.7945193192912944 0.0
C C 0.7068387995086948 0.9676571405580702 0.8420177790819774 0.0
H H 0.7267687995086947 0.95931714055807 0.9110577790819774 0.0
C C 0.7273540625223698 0.9339073509408005 0.7209432074292641 0.0
H H 0.75019406252237 0.8957773509408005 0.733883207429264 0.0
C C 0.7154238312442948 0.9446431541896156 0.6834910108020515 0.0
C C 0.7007877946742234 1.0367722768197682 0.6247774643650842 0.0
C C 0.6267574978171367 1.001278423670421 0.5456733749235175 0.0
H H 0.6053074978171369 1.039848423670421 0.5343133749235175 0.0
C C 0.6506619359335437 0.972994689388129 0.4521098024421996 0.0
H H 0.6242919359335438 0.985954689388129 0.3875398024421996 0.0
C C 0.5500184254622241 0.9069667729174969 0.48793091589608606 0.0
H H 0.517748425462224 0.8787267729174968 0.44547091589608606 0.0
C C 0.5545411589126857 0.9413242858797735 0.5939432418118116 0.0
C C 0.6028248610567202 0.7985035419351593 0.5820306399043269 0.0
C C 0.730208554498097 0.8142960021674669 0.6558300776706196 0.0
C C 0.7792438474267946 0.8148606363145874 0.597685189143209 0.0
C C 0.8424584239164001 0.7053337237629405 0.5648241945654348 0.0
H H 0.8967884239164 0.7258837237629403 0.5320441945654347 0.0
C C 0.9004962969507365 0.7203701814238108 0.6738616254198028 0.0
H H 0.9699262969507364 0.7082001814238108 0.6835716254198027 0.0
C C 0.804903827250159 0.6479261170920824 0.6712759206556314 0.0
C C 0.7269020349467442 0.699563225946325 0.7498392143867642 0.0
C C 0.6931094587492811 0.714706388058646 0.6515298833025347 0.0
C C 0.6603118924385134 0.7420752440566827 0.716349515823786 0.0
C C 0.5293357453148428 0.7091279620378237 0.7178225565009203 0.0
H H 0.4616857453148428 0.7244979620378237 0.7249625565009205 0.0
C C 0.5531233043852474 0.6484009653071479 0.6506818758792258 0.0
H H 0.5002533043852474 0.6241609653071478 0.6772118758792258 0.0
C C 0.6116988683792852 0.6237850230066349 0.6597229470673828 0.0
C C 0.6454936510266867 0.576137633552741 0.6874249889296383 0.0
C C 0.8426827274033758 0.6212231644038311 0.709148490027594 0.0
C C 0.7842938626639501 0.5105298894666265 0.7341294165026038 0.0
C C 0.8376498942167695 0.4819267461785854 0.765346423795613 0.0
H H 0.8470698942167694 0.5151767461785854 0.8068564237956131 0.0
C C 0.9751883563997138 0.4139525716186436 0.9214419987749701 0.0
H H 1.014871356399714 0.4065625716186436 0.9818259987749701 0.0
C C 0.7671349118140603 0.37461663794233263 0.7165563992985926 0.0
H H 0.7534449118140604 0.3359566379423327 0.7360463992985925 0.0
C C 0.7892156330059105 0.3969522829200018 0.6434218857845937 0.0
C C 0.7169866728781428 0.4198824351456628 0.6795658518929769 0.0
C C 0.7406292232139344 0.4724955650345219 0.510092625639974 0.0
H H 0.7313592232139343 0.5111555650345219 0.488622625639974 0.0
C C 0.6888129736027105 0.40813402380553354 0.5191694636296068 0.0
H H 0.6491529736027105 0.41249402380553357 0.4578094636296068 0.0
C C 0.7201006668128412 0.37916381223204787 0.5413063907051305 0.0
H H 0.7160106668128411 0.3507038122320479 0.48842639070513055 0.0
N N 0.6549318260083044 1.0548429724233122 0.6488466794808523 0.0
N N 0.7201332342988218 0.8505315149426804 0.5365793989668379 0.0
N N 0.7351610606677661 0.57245371757316 0.7224835347832509 0.0
N N 0.7155997717119251 0.3514198065192066 0.6239234083651728 0.0
O O 0.6046653993123513 1.1398604285068672 0.6778572899855001 0.0
O O 0.4879260349066673 1.2026495332036389 0.5262503700012391 0.0
O O 0.6970398464102713 1.1554705188527568 0.47482978432554873 0.0
O O 0.780651110096956 1.2373123487890942 0.4988599758505906 0.0
O O 0.726106720238194 1.1397667607690223 0.7769808763400851 0.0
O O 0.6650944328529879 1.2534427228865699 0.7944806579002683 0.0
O O 0.8295035588548453 1.1076417333537034 0.7005570081091083 0.0
O O 0.9027059689241954 1.2327232631125973 0.6483469933914365 0.0
O O 0.917491320437191 0.8342199451401364 0.5512580406308318 0.0
O O 0.5019848323507776 0.8314984456112956 0.6858244947467005 0.0
O O 0.9591797424293503 0.4954322131399977 0.6671102932584775 0.0
O O 0.5438935126110439 0.49711507771169805 0.7030895309805071 0.0
Zn Zn 0.7114022291452154 1.262700431465558 0.6029947848100904 0.0
Zn Zn 0.7175626776351389 1.1086208187202453 0.6838639934005182 0.0
C C -0.5683684823955059 1.7057864806687366 -0.5616395838847674 0.0
C C -0.4574969223376144 1.7190800609008197 -0.6554517964203295 0.0
C C -0.3970535740762452 1.6507722102423976 -0.611332600712474 0.0
H H -0.4304035740762452 1.6143422102423977 -0.6087826007124739 0.0
C C -0.23805684296654778 1.6380663883690658 -0.6514958494168926 0.0
C C -0.23412009757730023 1.7015344232722194 -0.6704311683737388 0.0
C C -0.24423134853544248 1.746084234205448 -0.6380435430852716 0.0
H H -0.2139813485354425 1.7832542342054478 -0.6405035430852716 0.0
C C -0.39163983252410517 1.7915469631237289 -0.6909256091811712 0.0
H H -0.4368898325241051 1.823616963123729 -0.6895756091811712 0.0
C C -0.2261167191208411 1.6011323606167367 -0.6259554052870056 0.0
H H -0.25245671912084106 1.5633023606167367 -0.6178954052870057 0.0
C C -0.12893550063932943 1.632448520905661 -0.6273169924878598 0.0
H H -0.08638550063932943 1.5996085209056612 -0.6380669924878598 0.0
C C -0.02465889615257954 1.6600980327500752 -0.7099079225292065 0.0
C C -0.10550147551385218 1.7393088482899244 -0.6312972527818242 0.0
H H -0.0780514755138522 1.7771788482899242 -0.6290472527818242 0.0
C C -0.7943844714581386 1.6573634225909297 -0.4217665068222363 0.0
C C -0.76653839265821 1.7065306812829961 -0.8017284034376141 0.0
C C -0.7368193842858766 1.6795446517252157 -0.9299581340944812 0.0
C C -0.7010340568713416 1.665856336561855 -1.0183018443602245 0.0
H H -0.7024840568713414 1.6280263365618552 -0.9903518443602245 0.0
C C -0.7688637772371714 1.6825188490756227 -1.1637163166000035 0.0
C C -0.7325151117545701 1.7113290765827678 -1.157001899988438 0.0
C C -0.7502751997004555 1.780995018476105 -1.1221293288745129 0.0
H H -0.7685251997004556 1.817575018476105 -1.148979328874513 0.0
C C -0.676742341204775 1.7555652999494733 -1.0144683648503785 0.0
H H -0.6494923412047752 1.7884352999494735 -0.9804183648503784 0.0
C C -0.7830478510231312 1.5920458319765511 -1.2495034748545848 0.0
H H -0.7950878510231313 1.555715831976551 -1.2180534748545846 0.0
C C -0.7843228186467482 1.6301516979136297 -1.2936814345757333 0.0
H H -0.7825528186467482 1.5964216979136299 -1.3352214345757334 0.0
C C -0.7619821322574813 1.6703840668149206 -1.3603370596460957 0.0
C C -0.7711184356040396 1.7220342147980352 -1.2771991675137144 0.0
H H -0.7848684356040395 1.758104214798035 -1.3088591675137142 0.0
C C -0.9763541215994695 1.6885115457572772 -0.6126496027708461 0.0
C C -0.7594908969151541 1.5339120145919567 -0.7644567819005648 0.0
H H -0.7837308969151541 1.5638820145919567 -0.8079967819005648 0.0
C C -0.7753359019186882 1.45857380973597 -0.7835354987201887 0.0
H H -0.7952659019186882 1.4502338097359697 -0.8525754987201888 0.0
C C -0.8053907390614541 1.4135813007041333 -0.726235833607799 0.0
H H -0.8282307390614543 1.3754513007041336 -0.7391758336077989 0.0
C C -0.6650449497740267 1.4565511896016379 -0.6619255656868572 0.0
C C -0.6794343390259419 1.4728296890244728 -0.6336776640832475 0.0
C C -0.6670815978584473 1.527725444756008 -0.5298748231136368 0.0
H H -0.6456315978584475 1.5662954447560082 -0.5185148231136367 0.0
C C -0.569485925906779 1.4701958954899008 -0.44722430798536783 0.0
H H -0.5431159259067792 1.483155895489901 -0.3826543079853678 0.0
C C -0.522291077052885 1.412572689881983 -0.5139890752883313 0.0
H H -0.490021077052885 1.3843326898819834 -0.47152907528833127 0.0
C C -0.7172547901785545 1.3913972212697188 -0.6035705081355105 0.0
C C -0.5891098449992178 1.3171529093841179 -0.6621188811307492 0.0
C C -0.7552225667442809 1.3225224007462781 -0.5937683458726599 0.0
C C -0.7453001529474237 1.2288173955262565 -0.5818536539529708 0.0
C C -0.8674838807677765 1.2589636519011709 -0.5337981026804779 0.0
H H -0.9218138807677764 1.2795136519011705 -0.5010181026804779 0.0
C C -0.8739615295772196 1.2048651993085848 -0.600039596142155 0.0
H H -0.9433915295772195 1.1926951993085848 -0.609749596142155 0.0
C C -0.7820520419159058 1.141191048846016 -0.5962582357038282 0.0
C C -0.6659708580866318 1.1761676616000174 -0.6536351807177344 0.0
C C -0.6744229539604718 1.208520002074907 -0.6306244146368771 0.0
C C -0.6574585265537712 1.2148500479683346 -0.6400026024653349 0.0
C C -0.515749556743939 1.2350456933773692 -0.7005562651670785 0.0
H H -0.44809955674393886 1.2504156933773694 -0.7076962651670785 0.0
C C -0.527359371455403 1.158070997600364 -0.7414081249979074 0.0
H H -0.474489371455403 1.133830997600364 -0.7679381249979075 0.0
C C -0.5956619177746661 1.1407181141503278 -0.7167373794696258 0.0
C C -0.6129416957620833 1.0308078784929309 -0.6596895673451852 0.0
C C -0.7787544843688224 1.0785134941290588 -0.6393268111898083 0.0
C C -0.7854698842133226 0.9956798501776051 -0.727689942516055 0.0
C C -0.82250908951551 0.9981891573949583 -0.7297165134177175 0.0
H H -0.83192908951551 1.0314391573949586 -0.7712265134177175 0.0
C C -0.9345572285205539 0.8619287275920189 -0.9896701119243673 0.0
H H -0.9742402285205539 0.8545387275920189 -1.0500541119243672 0.0
C C -0.6951974869468039 0.8447150436076319 -0.8118146542655817 0.0
H H -0.6815074869468041 0.806055043607632 -0.8313046542655818 0.0
C C -0.7610295807329951 0.8830115629721392 -0.6520441342078852 0.0
C C -0.6925595129237782 0.9388886186031408 -0.6021492536513442 0.0
C C -0.6825293188158278 0.941543160365913 -0.4991708422442247 0.0
H H -0.6732593188158278 0.980203160365913 -0.47770084224422465 0.0
C C -0.7120491372598033 0.8812947976160541 -0.45176340548761185 0.0
H H -0.6723891372598033 0.885654797616054 -0.3904034054876119 0.0
C C -0.6353302363306492 0.892201796462901 -0.4782473544290021 0.0
H H -0.6312402363306491 0.863741796462901 -0.4253673544290021 0.0
N N -0.7519101852633485 1.5385371576885023 -0.6926490503580347 0.0
N N -0.6459741942468412 1.3323572329111038 -0.5263349440240911 0.0
N N -0.7132031710872104 1.0534218629857066 -0.7338281711014111 0.0
N N -0.7013527948851289 0.825168416909965 -0.5701631207630645 0.0
O O -0.5066176814077896 1.679985315369477 -0.5562236606733232 0.0
O O -0.5987530129014508 1.7459493978814173 -0.5745432251087521 0.0
O O -0.771665368738507 1.617559969982941 -0.45955467051031673 0.0
O O -0.7760311332476338 1.705828165336242 -0.5565375315906689 0.0
O O -0.6223624188650085 1.6296796431819676 -0.7828885184855265 0.0
O O -0.7119440163077173 1.694649890158259 -0.816743104744511 0.0
O O -0.8163404626711566 1.6337845032377105 -0.5671139046866259 0.0
O O -0.8915369677052758 1.7501748010075926 -0.7062305798771144 0.0
O O -0.8071291788249586 1.320807146152408 -0.6201146169204433 0.0
O O -0.41952998833349725 1.3308696507611086 -0.6279822892457324 0.0
O O -0.9431342325624127 1.0439619703174843 -0.6751350988193434 0.0
O O -0.5370135538493613 1.0170773592078055 -0.8285966334249519 0.0
Zn Zn -0.7982114055112929 1.7515261989080322 -0.7237254635389976 0.0
Zn Zn -0.7333256575438037 1.6253156401590492 -0.5956714222294869 0.0
