_cell_length_a 12.935
_cell_length_b 23.242012
_cell_length_c 12.93505
_cell_angle_alpha 90.0
_cell_angle_beta 90.0
_cell_angle_gamma 90.0
_symmetry_space_group_name_H-M         'P 1'
_symmetry_Int_Tables_number            1
loop_
_symmetry_equiv_pos_as_xyz
   'x, y, z'
                         
loop_
_atom_site_label
_atom_site_type_symbol
_atom_site_fract_x 
_atom_site_fract_y
_atom_site_fract_z
_atom_site_charge
C C 0.5683927873317824 1.2221679500274718 0.5870185464835684 0.0
C C 0.4532012005044268 1.1858619787455413 0.6095995357367301 0.0
C C 0.3187783490910065 1.1928324440229332 0.5991134472669024 0.0
H H 0.35212834909100654 1.156402444022933 0.5965634472669024 0.0
C C 0.24162440938525465 1.1753986658811872 0.6512498527742675 0.0
C C 0.21865928028257264 1.22614821569168 0.6766416267207632 0.0
C C 0.28218139117784674 1.2556941740877288 0.6490265374698323 0.0
H H 0.2519313911778467 1.2928641740877287 0.6514865374698323 0.0
C C 0.4259920905307811 1.263043953433365 0.6794099975103272 0.0
H H 0.47124209053078103 1.295113953433365 0.6780599975103272 0.0
C C 0.18711785306002884 1.1090319774404798 0.6130304124698406 0.0
H H 0.2134578530600288 1.0712019774404797 0.6049704124698406 0.0
C C 0.07798272614845736 1.143606915887397 0.6440695957385049 0.0
H H 0.03543272614845738 1.110766915887397 0.6548195957385049 0.0
C C -0.006299563553965052 1.1733542176525185 0.6327700302395626 0.0
C C 0.1357314127890276 1.225405521056586 0.6744409198147419 0.0
H H 0.1082814127890276 1.263275521056586 0.6721909198147418 0.0
C C 0.7156137060987944 1.1741460530855876 0.46972339399950863 0.0
C C 0.659997989425489 1.1927339477267946 0.8519120641049265 0.0
C C 0.7030325129584652 1.2057884740607083 0.9065671127832065 0.0
C C 0.788496034383089 1.1687852339100198 0.9871173275088693 0.0
H H 0.7899460343830889 1.1309552339100195 0.9591673275088693 0.0
C C 0.7615124685864573 1.1658200382655153 1.1215520120898879 0.0
C C 0.7068942579260439 1.2292452896505308 1.1445027093142963 0.0
C C 0.690201075546991 1.2618924520320973 1.1224542659034167 0.0
H H 0.7084510755469908 1.2984724520320974 1.1493042659034167 0.0
C C 0.71323474427628 1.2374928210934084 1.0075424733249316 0.0
H H 0.68598474427628 1.2703628210934084 0.9734924733249315 0.0
C C 0.8158761171187908 1.1129564902842548 1.220931720045925 0.0
H H 0.8279161171187909 1.0766264902842548 1.189481720045925 0.0
C C 0.8622249862925682 1.121230654075447 1.3518865799272366 0.0
H H 0.860454986292568 1.087500654075447 1.3934265799272367 0.0
C C 0.7133849588839696 1.1792569589611135 1.3126583307789594 0.0
C C 0.8033333809271856 1.198587110641619 1.2963490895838166 0.0
H H 0.8170833809271856 1.234657110641619 1.3280090895838166 0.0
C C 0.868557772394174 1.1646078327849245 0.6846588082788017 0.0
C C 0.7772103312616143 1.030746196373136 0.7927909832576204 0.0
H H 0.8014503312616144 1.060716196373136 0.8363309832576205 0.0
C C 0.8671692666431187 0.9674754543248355 0.7818293452465754 0.0
H H 0.8870992666431187 0.9591354543248354 0.8508693452465755 0.0
C C 0.7138560630123993 0.9112537958735694 0.7516565559381706 0.0
H H 0.7366960630123994 0.8731237958735695 0.7645965559381706 0.0
C C 0.6971124944855164 0.9364581405443353 0.6213686026075423 0.0
C C 0.7264651169829196 1.0039655568438868 0.6291330789277686 0.0
C C 0.6157837994714922 0.9863510133645127 0.452557626340962 0.0
H H 0.5943337994714922 1.0249210133645126 0.441197626340962 0.0
C C 0.6742666140985866 0.9653990625814843 0.46231167960544167 0.0
H H 0.6478966140985868 0.9783590625814843 0.39774167960544166 0.0
C C 0.6817036455365134 0.8962586391259667 0.5145899532251014 0.0
H H 0.6494336455365134 0.8680186391259666 0.4721299532251014 0.0
C C 0.6875886041205207 0.8965723291941747 0.5754958034955527 0.0
C C 0.5392813239112282 0.8293297815235248 0.6889851794258527 0.0
C C 0.7536521257026539 0.7931865724659427 0.6164010990430838 0.0
C C 0.7312740170651489 0.775188068347956 0.5319918262508829 0.0
C C 0.877284269118819 0.7556065371727283 0.5743627431525068 0.0
H H 0.9316142691188188 0.7761565371727283 0.5415827431525068 0.0
C C 0.8455388044072439 0.7086979051005486 0.6926326049015511 0.0
H H 0.9149688044072439 0.6965279051005486 0.702342604901551 0.0
C C 0.7486083157085378 0.6267292424623022 0.6214296124179203 0.0
C C 0.705404295167115 0.6804830166967302 0.6325839927131411 0.0
C C 0.7177782731604039 0.7122889884527331 0.6231929158899254 0.0
C C 0.6006846613355366 0.7220824391617295 0.6008757052881943 0.0
C C 0.49120444952058157 0.6996997577369903 0.700129529513515 0.0
H H 0.4235544495205816 0.7150697577369903 0.7072695295135151 0.0
C C 0.5673603656891901 0.6170512143539512 0.6886521117690512 0.0
H H 0.5144903656891902 0.5928112143539511 0.7151821117690513 0.0
C C 0.567606250316468 0.6218054513077671 0.6150763987519879 0.0
C C 0.7135251406600935 0.5730470072428739 0.6998255702715619 0.0
C C 0.802242079039924 0.5653800132986704 0.61989510131689 0.0
C C 0.7569341711037761 0.48536595430561147 0.698044926601386 0.0
C C 0.8483510084798465 0.4685172509592678 0.7689700988178664 0.0
H H 0.8577710084798464 0.5017672509592678 0.8104800988178665 0.0
C C 0.7663288826001453 0.38900049393093455 0.7383655169219113 0.0
H H 0.8060118826001453 0.38161049393093455 0.7987495169219112 0.0
C C 0.8071575188165148 0.34078676556269044 0.765262369837022 0.0
H H 0.7934675188165148 0.30212676556269047 0.784752369837022 0.0
C C 0.7592754296389838 0.3779322032027305 0.6627918739759697 0.0
C C 0.735614943266323 0.4334900156538523 0.6474484908100485 0.0
C C 0.6167472521738663 0.40490096228107314 0.5321838500552302 0.0
H H 0.6074772521738663 0.4435609622810731 0.5107138500552302 0.0
C C 0.6664965359204283 0.38755967113221496 0.47942394218112006 0.0
H H 0.6268365359204282 0.39191967113221504 0.41806394218112003 0.0
C C 0.7377020232651843 0.34517056934665735 0.5557848888465861 0.0
H H 0.7336120232651842 0.31671056934665737 0.502904888846586 0.0
N N 0.7285518653705688 1.0304518172011794 0.6385593991246485 0.0
N N 0.6730028024592728 0.8582028827613953 0.5619742035949453 0.0
N N 0.7699580352232678 0.5144635747824952 0.6416269122701921 0.0
N N 0.6992160806190786 0.3233953724498133 0.6093875739943988 0.0
O O 0.6503870932731395 1.104668695600261 0.6144986585668027 0.0
O O 0.5180665283033742 1.2626211965042418 0.6883286574972355 0.0
O O 0.8045425163297238 1.146935154470231 0.509771305638866 0.0
O O 0.8017109847529249 1.2652166907748494 0.45599270482406734 0.0
O O 0.7111703964010126 1.1480218754426657 0.7985545800715391 0.0
O O 0.6814179286270572 1.2682833079804225 0.7871103601060533 0.0
O O 0.9044368143760213 1.1645353727139423 0.68040911537122 0.0
O O 0.8914433587125079 1.2286335166595428 0.5695152620898676 0.0
O O 0.8017390939251939 0.814199060258241 0.5134536338001987 0.0
O O 0.4437229661418767 0.7993821117999517 0.6986170991168468 0.0
O O 0.96623039351256 0.5820891549683205 0.5991711219968792 0.0
O O 0.5536489029201022 0.5291176339159441 0.7152839378880453 0.0
Zn Zn 0.8077969449659451 1.2842433129623136 0.6228127038309266 0.0
Zn Zn 0.703739985670707 1.1126200048411206 0.6732703011945812 0.0
C C -0.5023029451057044 1.6966728485259688 -0.614366414850526 0.0
C C -0.44169859829161356 1.6985905367187903 -0.6493640372604907 0.0
C C -0.3699649376181728 1.651945631793921 -0.6416819715106865 0.0
H H -0.40331493761817283 1.6155156317939208 -0.6391319715106866 0.0
C C -0.2584544865823259 1.6501561770041673 -0.6296113777361491 0.0
C C -0.3012843322058132 1.698130697390421 -0.6604020702254956 0.0
C C -0.23581690179874146 1.7806992327642583 -0.6096257798926182 0.0
H H -0.20556690179874143 1.8178692327642583 -0.6120857798926183 0.0
C C -0.38349114299704073 1.7934900865318748 -0.624516021164758 0.0
H H -0.42874114299704064 1.8255600865318748 -0.623166021164758 0.0
C C -0.17885847287090767 1.6272607549536318 -0.5888045522184931 0.0
H H -0.20519847287090764 1.589430754953632 -0.5807445522184932 0.0
C C -0.09081349530966307 1.6411119825890321 -0.6862286350720628 0.0
H H -0.04826349530966308 1.6082719825890321 -0.6969786350720628 0.0
C C -0.06238546045970941 1.6666878607759767 -0.5760960860526653 0.0
C C -0.09539803576949826 1.7224680132230081 -0.6771544520085383 0.0
H H -0.06794803576949827 1.760338013223008 -0.6749044520085381 0.0
C C -0.7821365192384109 1.6907370303745928 -0.39904759984984567 0.0
C C -0.7468638501177411 1.6951396813694648 -0.8368761382517634 0.0
C C -0.7414014030078689 1.7131905796291909 -1.0179270713742754 0.0
C C -0.7335059031129628 1.6585381667228327 -1.0205581842591676 0.0
H H -0.7349559031129628 1.620708166722833 -0.9926081842591676 0.0
C C -0.7354018727622653 1.6367736450377768 -1.1042863694120035 0.0
C C -0.726201621148232 1.7426533912047477 -1.23186538523504 0.0
C C -0.8450820331461201 1.7613023611380398 -1.1371204486052964 0.0
H H -0.8633320331461202 1.79788236113804 -1.1639704486052964 0.0
C C -0.693850696104731 1.7603703654557654 -1.0458646733848405 0.0
H H -0.666600696104731 1.7932403654557656 -1.0118146733848405 0.0
C C -0.7365354478650862 1.624059243398471 -1.1975240276382861 0.0
H H -0.7485754478650862 1.587729243398471 -1.1660740276382862 0.0
C C -0.7865571427946627 1.6233995446849374 -1.3281230005907032 0.0
H H -0.7847871427946626 1.5896695446849376 -1.3696630005907033 0.0
C C -0.7560159191248129 1.6467600762766756 -1.3406753419133957 0.0
C C -0.8093724135790946 1.7191288768754172 -1.278643933418441 0.0
H H -0.8231224135790945 1.755198876875417 -1.310303933418441 0.0
C C -0.8687999071879424 1.7047615493580544 -0.6256278354463408 0.0
C C -0.8099638034236778 1.4920492709452047 -0.7489652399547474 0.0
H H -0.8342038034236778 1.5220192709452047 -0.7925052399547474 0.0
C C -0.7821957936011288 1.4502663644827858 -0.8078971267899318 0.0
H H -0.8021257936011288 1.4419263644827855 -0.8769371267899317 0.0
C C -0.7480292166992263 1.411237621040958 -0.7381409641726691 0.0
H H -0.7708692166992265 1.3731076210409583 -0.751080964172669 0.0
C C -0.6540856792776606 1.460973774640208 -0.5743017411837373 0.0
C C -0.6459393736928783 1.5128512873310453 -0.6075717445649442 0.0
C C -0.6587203810149358 1.501613533596712 -0.5372193490240633 0.0
H H -0.6372703810149359 1.5401835335967122 -0.5258593490240633 0.0
C C -0.5606912554391327 1.4798055836112336 -0.5307238961377674 0.0
H H -0.5343212554391329 1.4927655836112337 -0.46615389613776737 0.0
C C -0.5303291450517762 1.4381817078940042 -0.5095148437532485 0.0
H H -0.4980591450517761 1.4099417078940046 -0.4670548437532485 0.0
C C -0.6658228531099397 1.3855223551923024 -0.6058165543231229 0.0
C C -0.5359004378693729 1.3121102722790563 -0.5881879365002327 0.0
C C -0.7118395603535639 1.3054177443908257 -0.5264930554331965 0.0
C C -0.8089291693534951 1.283135688857186 -0.6426176163059666 0.0
C C -0.8708671624578359 1.2293777041273677 -0.5959740160734904 0.0
H H -0.9251971624578358 1.2499277041273673 -0.5631940160734904 0.0
C C -0.822528023675102 1.2495639858457939 -0.6889128546287958 0.0
H H -0.891958023675102 1.2373939858457939 -0.6986228546287957 0.0
C C -0.8079875950708345 1.1557357312461154 -0.6940005532304929 0.0
C C -0.684833046267637 1.1623974225422917 -0.657127128970021 0.0
C C -0.6934792086761161 1.2224062638666773 -0.6051946960570739 0.0
C C -0.5709274865444242 1.227611332121661 -0.6675544104523453 0.0
C C -0.4867402123941565 1.219289926323994 -0.6749964763581693 0.0
H H -0.41909021239415645 1.2346599263239941 -0.6821364763581693 0.0
C C -0.5486877846434449 1.1597952311049378 -0.7708854377869939 0.0
H H -0.4958177846434449 1.1355552311049377 -0.7974154377869939 0.0
C C -0.6195300022410594 1.1307951377911234 -0.6317883274221582 0.0
C C -0.6010253940868021 1.0668426122692805 -0.704380011676469 0.0
C C -0.8016033728629112 1.0817649090348151 -0.6334075767717553 0.0
C C -0.7331710669159884 0.997675816144965 -0.6861571269069943 0.0
C C -0.7904177672884811 0.9811780182718594 -0.880226621124919 0.0
H H -0.799837767288481 1.0144280182718597 -0.9217366211249192 0.0
C C -0.9272217206906991 0.8637908037411998 -0.8907458340210529 0.0
H H -0.966904720690699 0.8564008037411998 -0.9511298340210529 0.0
C C -0.8076687867297828 0.8219762324921279 -0.7438998364050942 0.0
H H -0.7939787867297828 0.7833162324921281 -0.7633898364050941 0.0
C C -0.7787898165582373 0.8881618317828622 -0.6688114489637205 0.0
C C -0.7245207645368269 0.9536439935677632 -0.6176666253864141 0.0
C C -0.6501184644685124 0.9618260908758046 -0.5299677836142513 0.0
H H -0.6408484644685124 1.0004860908758046 -0.5084977836142514 0.0
C C -0.7285173458674775 0.9055702400443123 -0.4440265670238528 0.0
H H -0.6888573458674774 0.9099302400443122 -0.3826665670238528 0.0
C C -0.7756056618830212 0.8646534933780463 -0.4671682808961846 0.0
H H -0.771515661883021 0.8361934933780464 -0.4142882808961846 0.0
N N -0.6641743646702977 1.5610778633198787 -0.7020093292416497 0.0
N N -0.6998848468531438 1.324444800274121 -0.6485001146340187 0.0
N N -0.7527196197776312 1.0263067413760802 -0.638765183287923 0.0
N N -0.7825435842794196 0.8212104785885197 -0.5815369815736654 0.0
O O -0.641902054359577 1.64642354021226 -0.6191517642288031 0.0
O O -0.5644790314857863 1.7302063607551588 -0.6369603093552373 0.0
O O -0.7492854166167593 1.6277461624358027 -0.4894178483338892 0.0
O O -0.6846586279022893 1.720843127045987 -0.461911641146412 0.0
O O -0.7115632986564773 1.6499029703205463 -0.8392862820355813 0.0
O O -0.76306239713798 1.7107469293208346 -0.7914658807956126 0.0
O O -0.8294393363953475 1.625822670910416 -0.6521123006472059 0.0
O O -0.8746060089109923 1.752639842644468 -0.6905691302681313 0.0
O O -0.8132871057210092 1.3986802798165212 -0.6131946926791517 0.0
O O -0.545912080541577 1.291670096299948 -0.5681187715866568 0.0
O O -0.9357697866007086 1.076827147030793 -0.5969156913878472 0.0
O O -0.5677176436068454 1.038401009663892 -0.7047344454955166 0.0
Zn Zn -0.7981026980988633 1.7196897591237088 -0.6365372554062041 0.0
Zn Zn -0.7182370985752281 1.6580072528668681 -0.612982789940714 0.0
