_cell_length_a 13.6316
_cell_length_b 13.6316
_cell_length_c 7.968
_cell_angle_alpha 90.0
_cell_angle_beta 90.0
_cell_angle_gamma 90.0
_symmetry_space_group_name_H-M         'P 1'
_symmetry_Int_Tables_number            1
loop_
_symmetry_equiv_pos_as_xyz
   'x, y, z'
                         
loop_
_atom_site_label
_atom_site_type_symbol
_atom_site_fract_x 
_atom_site_fract_y
_atom_site_fract_z
_atom_site_charge
C C 0.5155363762330827 0.6758471114105655 0.13788225649169447 0.0
C C 0.5196754952927749 0.7992369955691917 0.12714704966235404 0.0
C C 0.47596246846836504 0.318240037850959 0.12508511517680132 0.0
C C 0.49070640329955595 0.2493724385011868 0.15618277431356628 0.0
C C 0.31129204834816243 0.5255559506482743 0.15509112778934275 0.0
C C 0.19990557790801164 0.4854311834799154 0.05742435579304771 0.0
C C 0.6944895807317191 0.47704527532185664 0.09761980153545871 0.0
C C 0.7469504117279856 0.47745910092060523 0.10162444601754746 0.0
C C 0.4772239866660201 0.7148353285606217 0.936099112178217 0.0
C C 0.4706991927821721 0.772836955907259 0.8958150961972567 0.0
C C 0.49971461188368504 0.28942997375876217 0.9391988715235133 0.0
C C 0.5089855893679434 0.23316333216087004 0.9005216715919414 0.0
C C 0.7171200572236149 0.5000073109242313 0.8407879920544064 0.0
C C 0.7824328546783569 0.5193801621514194 0.8817742053995126 0.0
C C 0.3175576231090514 0.4845154013745829 0.8349917965548121 0.0
C C 0.15753700657101125 0.48836074657440676 0.8675174231271262 0.0
C C 0.503893731172457 0.20722257996051072 0.020678535476276898 0.0
C C 0.6093217174390785 0.06584737964944555 -0.0027100294076419272 0.0
C C 0.5526861425780732 0.8178104640669349 0.01757377382607021 0.0
C C 0.5125928645568512 0.9417966163539471 -0.03159482710378954 0.0
C C 0.8442414831058066 0.5556371886597667 -0.03608592238114663 0.0
C C 0.9631642009157989 0.5092261200267004 -0.02493012946954023 0.0
C C 0.09636663141476927 0.4817890799950433 -0.024113616144408108 0.0
C C 0.02232745429360007 0.4195210459282727 -0.022006796726148692 0.0
H H 0.5390643762330827 0.6326371114105657 0.24584525649169445 0.0
H H 0.5454654952927749 0.8370769955691917 0.239045049662354 0.0
H H 0.45243446846836505 0.361450037850959 0.2330481151768013 0.0
H H 0.4649164032995559 0.21153343850118678 0.26808077431356625 0.0
H H 0.3545020483481625 0.5490839506482743 0.26305412778934273 0.0
H H 0.16206657790801163 0.5112211834799153 0.16932235579304766 0.0
H H 0.6512795807317191 0.45351727532185665 0.20558280153545866 0.0
H H 0.7847904117279856 0.4516691009206052 0.21352244601754744 0.0
H H 0.4536959866660202 0.6716253285606218 0.8281361121782168 0.0
H H 0.44490919278217206 0.810676955907259 0.7839170961972567 0.0
H H 0.5232426118836851 0.3326399737587622 0.8312358715235133 0.0
H H 0.5347755893679433 0.19532433216087006 0.7886236715919414 0.0
H H 0.673910057223615 0.5235353109242313 0.7328249920544062 0.0
H H 0.8202728546783569 0.5451701621514193 0.7698762053995125 0.0
H H 0.36076762310905147 0.46098740137458294 0.727028796554812 0.0
H H 0.11969800657101125 0.4625707465744068 0.7556194231271262 0.0
Cu Cu 0.4941980441821213 0.5188114852431589 0.03966545722836376 0.0
Si Si 0.4985198720317686 0.5148522282601968 0.5342895657721275 0.0
F F 0.5179448827603815 0.5194338216634955 0.659805516631923 0.0
F F 0.4878172205053332 0.564226868929972 0.17535729789133944 0.0
F F 0.5961518017940061 0.5386161103327507 0.48748780785088586 0.0
F F 0.435531522430424 0.6189304676921659 0.4666170422708784 0.0
F F 0.37756216329683534 0.4239910665389938 0.5327372271140529 0.0
F F 0.5640435683732772 0.42052985182106484 0.5203578676740583 0.0
N N 0.46721796987680536 0.3465172509102255 0.01048158334994596 0.0
N N 0.4772040542673508 0.6465083971574157 0.00894097329868635 0.0
N N 0.6684461542420108 0.5008882194522608 -0.004824182678606318 0.0
N N 0.330767583385687 0.5103320093080562 -0.021406348569503974 0.0
_cell_length_a 13.6316
_cell_length_b 13.6316
_cell_length_c 7.968
_cell_angle_alpha 90.0
_cell_angle_beta 90.0
_cell_angle_gamma 90.0
_symmetry_space_group_name_H-M         'P 1'
_symmetry_Int_Tables_number            1
loop_
_symmetry_equiv_pos_as_xyz
   'x, y, z'
                         
loop_
_atom_site_label
_atom_site_type_symbol
_atom_site_fract_x 
_atom_site_fract_y
_atom_site_fract_z
_atom_site_charge
C C 0.5278139993185729 0.7118104473496467 0.10365663466351037 0.0
C C 0.5415897214353209 0.738495241968022 0.1859392708147254 0.0
C C 0.42453213843368803 0.29003489708980107 0.21112857565345652 0.0
C C 0.48240666382019803 0.2210857237918565 0.08093053359653855 0.0
C C 0.30028663007951256 0.5028415101435362 0.14388733228310868 0.0
C C 0.19103061160733475 0.5291265720601203 0.049422742314403564 0.0
C C 0.705163871035767 0.47060503219973737 0.16662951811334595 0.0
C C 0.7768862369213679 0.5168993957528525 0.2080152218455564 0.0
C C 0.49720644652193485 0.7124096696518671 0.8981460255832255 0.0
C C 0.46279161935752533 0.8408559558488012 0.8596351220165068 0.0
C C 0.5280968823871472 0.332658183649788 1.0199569365241405 0.0
C C 0.5048279107155219 0.18709597498431052 0.8499853349598792 0.0
C C 0.680023142409035 0.5659645561979995 1.0096195208347265 0.0
C C 0.8022280791757243 0.49273138685098244 0.9375506622082787 0.0
C C 0.31443568536135846 0.5360505344470363 0.8033222839011398 0.0
C C 0.13504688829074044 0.4583544286716302 0.8973444460592056 0.0
C C 0.471529422598283 0.12712377633921665 0.09466451540276623 0.0
C C 0.48484837536735836 0.037471005155817756 -0.08731636379173584 0.0
C C 0.5019864311667411 0.8992391740916387 -0.04071085384342595 0.0
C C 0.5409847019132 0.9300230601286379 0.026782963322264763 0.0
C C 0.859053505759885 0.49739974013720206 0.10659374029026637 0.0
C C 0.9796826848270804 0.4846905613995651 -0.04914363807426364 0.0
C C 0.18594703100412754 0.5092134294207084 -0.020965577598533472 0.0
C C 0.03240503143354152 0.4526325876257606 -0.01632700973788641 0.0
H H 0.5513419993185729 0.6686004473496467 0.21161963466351033 0.0
H H 0.5673797214353209 0.776335241968022 0.29783727081472533 0.0
H H 0.40100413843368804 0.3332448970898011 0.31909157565345647 0.0
H H 0.456616663820198 0.18324672379185653 0.19282853359653854 0.0
H H 0.34349663007951264 0.5263695101435361 0.25185033228310866 0.0
H H 0.15319161160733477 0.5549165720601202 0.16132074231440355 0.0
H H 0.6619538710357671 0.4470770321997374 0.2745925181133459 0.0
H H 0.8147262369213679 0.4911093957528524 0.3199132218455564 0.0
H H 0.47367844652193486 0.6691996696518673 0.7901830255832254 0.0
H H 0.43700161935752535 0.8786959558488012 0.7477371220165068 0.0
H H 0.5516248823871472 0.37586818364978797 0.9119939365241404 0.0
H H 0.5306179107155219 0.1492569749843105 0.7380873349598791 0.0
H H 0.6368131424090351 0.5894925561979993 0.9016565208347265 0.0
H H 0.8400680791757242 0.5185213868509825 0.8256526622082786 0.0
H H 0.35764568536135855 0.5125225344470363 0.6953592839011398 0.0
H H 0.09720788829074044 0.43256442867163014 0.7854464460592055 0.0
Cu Cu 0.49015872774801333 0.485031630475128 -0.03893637346530832 0.0
Si Si 0.509226867429552 0.47029551206692094 0.5170529387645946 0.0
F F 0.4786839770028061 0.5073620651763194 0.7982996225610902 0.0
F F 0.543875456735004 0.451751615462284 0.31559465008458304 0.0
F F 0.6099682234581614 0.6015494887331052 0.5296150266576989 0.0
F F 0.43069510835330443 0.5947090386554543 0.44331959705456436 0.0
F F 0.4022879313019779 0.40891122092280313 0.499924685203743 0.0
F F 0.5638084753568658 0.45273797528659127 0.5739166343687467 0.0
N N 0.5463633982984162 0.34469078478680704 0.017380748343794224 0.0
N N 0.5041840344163221 0.6477557192414749 0.025039398662779575 0.0
N N 0.6734930049832638 0.4765356792621893 0.051511561469995595 0.0
N N 0.35472975436034676 0.43953920812522257 -0.02224391437886275 0.0
_cell_length_a 13.6316
_cell_length_b 13.6316
_cell_length_c 7.968
_cell_angle_alpha 90.0
_cell_angle_beta 90.0
_cell_angle_gamma 90.0
_symmetry_space_group_name_H-M         'P 1'
_symmetry_Int_Tables_number            1
loop_
_symmetry_equiv_pos_as_xyz
   'x, y, z'
                         
loop_
_atom_site_label
_atom_site_type_symbol
_atom_site_fract_x 
_atom_site_fract_y
_atom_site_fract_z
_atom_site_charge
C C 0.5537170105301256 0.6978373948190596 0.11577677554540618 0.0
C C 0.5686686880996165 0.8062920275861585 0.07783843193273765 0.0
C C 0.47986109411947403 0.30015624914675737 0.1302524572923982 0.0
C C 0.461767324864876 0.22487569234970065 0.10059485487087814 0.0
C C 0.2761190584407444 0.5103346817793069 0.15240590430194273 0.0
C C 0.25704706304041264 0.5439387954843541 0.11105765206334652 0.0
C C 0.6807218388738571 0.47769941055855375 0.024235163083969887 0.0
C C 0.8288093484816683 0.47695836804538655 0.12424739907740036 0.0
C C 0.4163827020420205 0.6668241853400045 0.7749090982662916 0.0
C C 0.4684326003272971 0.7971038589607441 0.8618057481776285 0.0
C C 0.5131532955481227 0.3166426369305488 0.9185919308078371 0.0
C C 0.532414268819932 0.20415939691687315 0.8725280588703136 0.0
C C 0.6821369267105013 0.5428804478010283 0.795598981075482 0.0
C C 0.7662492525625777 0.5746334872265867 0.8035770619070334 0.0
C C 0.27501716992900327 0.5154969965381059 0.7974020594864474 0.0
C C 0.19924385479500814 0.47034146668085 0.9005839648326827 0.0
C C 0.5323248252492989 0.1357187860435942 -0.034547950069470715 0.0
C C 0.47088829487240424 0.08626648601917626 0.024935217350180495 0.0
C C 0.47470853618752507 0.8788019146733577 -0.0003073537063841667 0.0
C C 0.4791397369628599 0.9046793944764688 0.04060075799382127 0.0
C C 0.8614591909794911 0.5112597952272231 -0.0022017692848416257 0.0
C C 0.9903459202215071 0.5108757086669662 0.05523741784114912 0.0
C C 0.10411761587908964 0.5084357615684894 0.03695533525374459 0.0
C C 0.027938836568354178 0.4919076534538148 -0.0014536724315752094 0.0
H H 0.5772450105301256 0.6546273948190596 0.22373977554540614 0.0
H H 0.5944586880996166 0.8441320275861585 0.18973643193273762 0.0
H H 0.4563330941194741 0.3433662491467574 0.23821545729239815 0.0
H H 0.43597732486487595 0.18703669234970063 0.21249285487087813 0.0
H H 0.3193290584407445 0.5338626817793068 0.2603689043019427 0.0
H H 0.21920806304041268 0.569728795484354 0.2229556520633465 0.0
H H 0.6375118388738571 0.45417141055855376 0.13219816308396984 0.0
H H 0.8666493484816683 0.4511683680453865 0.23614539907740034 0.0
H H 0.3928547020420205 0.6236141853400046 0.6669460982662916 0.0
H H 0.44264260032729713 0.8349438589607441 0.7499077481776283 0.0
H H 0.5366812955481227 0.3598526369305488 0.810628930807837 0.0
H H 0.558204268819932 0.16632039691687317 0.7606300588703134 0.0
H H 0.6389269267105014 0.5664084478010283 0.687635981075482 0.0
H H 0.8040892525625777 0.6004234872265868 0.6916790619070333 0.0
H H 0.3182271699290034 0.4919689965381059 0.6894390594864473 0.0
H H 0.16140485479500816 0.44455146668084994 0.7886859648326826 0.0
Cu Cu 0.4577877244713952 0.4886478654327425 0.005597597070610442 0.0
Si Si 0.5342932595866089 0.48255324075711997 0.4902432172575544 0.0
F F 0.4459311029565345 0.49695547182741373 0.5856158609527057 0.0
F F 0.5141444716411842 0.49226540938304214 0.30965852596075205 0.0
F F 0.5655596654100122 0.5966727232334716 0.511790690937568 0.0
F F 0.40272358840840067 0.5965751737350202 0.46717745640914393 0.0
F F 0.39515862537705415 0.4093966152203604 0.4645356616095768 0.0
F F 0.5830973496730719 0.45559573701051936 0.4738267946205005 0.0
N N 0.47196222557372297 0.3756625529188672 0.02524763525127224 0.0
N N 0.47134510280216635 0.6565002941559598 0.050597697467473404 0.0
N N 0.6811629459221401 0.5478385471799071 0.07705616574360084 0.0
N N 0.38446557925148933 0.4932371725187329 0.02817879092703148 0.0
_cell_length_a 13.6316
_cell_length_b 13.6316
_cell_length_c 7.968
_cell_angle_alpha 90.0
_cell_angle_beta 90.0
_cell_angle_gamma 90.0
_symmetry_space_group_name_H-M         'P 1'
_symmetry_Int_Tables_number            1
loop_
_symmetry_equiv_pos_as_xyz
   'x, y, z'
                         
loop_
_atom_site_label
_atom_site_type_symbol
_atom_site_fract_x 
_atom_site_fract_y
_atom_site_fract_z
_atom_site_charge
C C 0.5599847873442939 0.6990573712946218 0.2760750720342444 0.0
C C 0.5176877339965075 0.8069349086507733 0.24259293450603023 0.0
C C 0.4812606820781439 0.2969067702614488 0.21334680703766234 0.0
C C 0.44178141711880714 0.16530587386749615 0.09834768439497833 0.0
C C 0.27014974155006277 0.5315115396815615 0.15857469223573975 0.0
C C 0.15790094594149823 0.5836691720612456 0.0935966249181587 0.0
C C 0.6691950166351133 0.5095510263394605 0.21029185004283923 0.0
C C 0.7944932410212963 0.4892240739630136 0.19747621989375613 0.0
C C 0.4971262871548677 0.6753851552014076 0.8189886064444672 0.0
C C 0.4868489184426909 0.8063604117474988 0.9518876154443121 0.0
C C 0.5063705663091274 0.2990491522323642 0.8630440659070713 0.0
C C 0.5169309731328355 0.20500356096893263 0.83810578608243 0.0
C C 0.6863940328661421 0.4809129878606213 0.8711426773103662 0.0
C C 0.8098952422009255 0.5396203987278768 0.8800866042931117 0.0
C C 0.32131255081641275 0.4832258278423552 0.8785447835480313 0.0
C C 0.15815787055987737 0.44919911927765027 0.7924304301180796 0.0
C C 0.47786895616838687 0.18547240465628692 0.028658186616487953 0.0
C C 0.5286774028786562 0.08884598718738056 0.06310707909551959 0.0
C C 0.5151932798407526 0.8351383900299876 -0.012102715281530637 0.0
C C 0.5000793817608834 0.9284223398383898 0.024661452225793648 0.0
C C 0.874718972899931 0.5005293981232467 0.01845960095515208 0.0
C C 0.9484551386200608 0.5606846614623578 -0.003368312860303321 0.0
C C 0.12477328974427387 0.5065756012023214 0.0698667761345895 0.0
C C 0.0448431411501732 0.45272174101270996 0.04043800493083884 0.0
H H 0.5835127873442939 0.6558473712946218 0.38403807203424434 0.0
H H 0.5434777339965073 0.8447749086507733 0.3544909345060302 0.0
H H 0.4577326820781439 0.3401167702614488 0.3213098070376623 0.0
H H 0.4159914171188071 0.12746687386749614 0.21024568439497832 0.0
H H 0.31335974155006285 0.5550395396815615 0.2665376922357397 0.0
H H 0.12006194594149822 0.6094591720612457 0.20549462491815867 0.0
H H 0.6259850166351133 0.4860230263394605 0.3182548500428392 0.0
H H 0.8323332410212962 0.46343407396301356 0.3093742198937561 0.0
H H 0.4735982871548678 0.6321751552014077 0.7110256064444672 0.0
H H 0.46105891844269087 0.8442004117474988 0.839989615444312 0.0
H H 0.5298985663091274 0.3422591522323643 0.7550810659070711 0.0
H H 0.5427209731328355 0.16716456096893265 0.72620778608243 0.0
H H 0.6431840328661422 0.5044409878606213 0.7631796773103662 0.0
H H 0.8477352422009254 0.5654103987278768 0.7681886042931116 0.0
H H 0.3645225508164128 0.45969782784235524 0.7705817835480313 0.0
H H 0.12031887055987738 0.4234091192776503 0.6805324301180795 0.0
Cu Cu 0.4817599048163334 0.5083170809529842 -0.010463038696804719 0.0
Si Si 0.45762700006173707 0.5346665478352377 0.5129388782501318 0.0
F F 0.5095306486705028 0.48545860680067676 0.8239037838271703 0.0
F F 0.48775874060179525 0.48398421514337975 0.30089258491528914 0.0
F F 0.5895047290925186 0.6194364305917361 0.45745951880680846 0.0
F F 0.37355584194905317 0.5986805941681194 0.47631618623106414 0.0
F F 0.3836877088876964 0.424270530824505 0.4910816078767664 0.0
F F 0.6198567043336717 0.37856506258926587 0.5223162609725622 0.0
N N 0.4856504970584414 0.36601098861320897 0.016629594368671886 0.0
N N 0.5161496964809682 0.6837963901814101 -0.04146780948377514 0.0
N N 0.6643326807187792 0.48993095507628365 0.01445456503795148 0.0
N N 0.3416064213278348 0.5381091793284755 0.010297910566289694 0.0
_cell_length_a 13.6316
_cell_length_b 13.6316
_cell_length_c 7.968
_cell_angle_alpha 90.0
_cell_angle_beta 90.0
_cell_angle_gamma 90.0
_symmetry_space_group_name_H-M         'P 1'
_symmetry_Int_Tables_number            1
loop_
_symmetry_equiv_pos_as_xyz
   'x, y, z'
                         
loop_
_atom_site_label
_atom_site_type_symbol
_atom_site_fract_x 
_atom_site_fract_y
_atom_site_fract_z
_atom_site_charge
C C 0.5418513070736205 0.7334297705375009 0.10785564917569783 0.0
C C 0.5183656861022534 0.8670276516929392 0.1049062373374605 0.0
C C 0.45589404549902257 0.2848753126684468 0.10229721408966394 0.0
C C 0.48122335222284807 0.22594818137081668 0.12597778837363666 0.0
C C 0.30051374535341724 0.5287078540984433 0.09874797069695938 0.0
C C 0.12664125465503218 0.5069091062890634 0.14542874140468595 0.0
C C 0.7230248359686359 0.47104573999935434 0.15751778940860695 0.0
C C 0.8065043489291773 0.472509324965036 0.1726046142491845 0.0
C C 0.48156892225765086 0.6770796030915558 0.8443964031768344 0.0
C C 0.4989550514264904 0.8030270375856641 0.8628089372861216 0.0
C C 0.5031026218273263 0.34658611169954107 0.9240847137751651 0.0
C C 0.5122295861607136 0.19244894448961553 0.7753573184424885 0.0
C C 0.6870126659748368 0.5490732447583603 0.8607137483236758 0.0
C C 0.8337929976455722 0.4786196798412409 0.8463980025761131 0.0
C C 0.2889135397343036 0.48293660912192876 0.8742674646161626 0.0
C C 0.21094341196082125 0.49459416601349826 0.8676849112198387 0.0
C C 0.4788723430997862 0.1414178857810655 -0.06250969004794293 0.0
C C 0.4847903227674271 0.03338870183916715 -0.06492451970590125 0.0
C C 0.5002931275407909 0.8192021853634668 -0.07985523843094562 0.0
C C 0.5044470239326688 0.9485027097887018 -0.07277460276806133 0.0
C C 0.8484521030740031 0.4457708852154445 0.005365240135778337 0.0
C C 0.9448410651716188 0.4969629614415946 -0.07083346410376101 0.0
C C 0.13823354120897688 0.5275952478711909 0.06719268806706394 0.0
C C 0.04503505088460666 0.5489583272405986 0.051944214109284174 0.0
H H 0.5653793070736205 0.6902197705375009 0.2158186491756978 0.0
H H 0.5441556861022534 0.9048676516929391 0.2168042373374605 0.0
H H 0.4323660454990226 0.32808531266844676 0.21026021408966392 0.0
H H 0.45543335222284803 0.18810918137081667 0.23787578837363665 0.0
H H 0.3437237453534173 0.5522358540984433 0.20671097069695935 0.0
H H 0.08880225465503218 0.5326991062890634 0.2573267414046859 0.0
H H 0.6798148359686359 0.4475177399993544 0.2654807894086069 0.0
H H 0.8443443489291773 0.44671932496503597 0.28450261424918444 0.0
H H 0.458040922257651 0.6338696030915558 0.7364334031768343 0.0
H H 0.4731650514264904 0.8408670375856641 0.7509109372861216 0.0
H H 0.5266306218273263 0.38979611169954104 0.8161217137751651 0.0
H H 0.5380195861607135 0.15460994448961551 0.6634593184424884 0.0
H H 0.6438026659748368 0.5726012447583603 0.7527507483236756 0.0
H H 0.8716329976455722 0.504409679841241 0.734500002576113 0.0
H H 0.33212353973430364 0.4594086091219288 0.7663044646161625 0.0
H H 0.17310441196082124 0.4688041660134983 0.7557869112198387 0.0
Cu Cu 0.48204142169596303 0.4557792482519131 -0.033258128000790546 0.0
Si Si 0.50231924175976 0.5519402189056923 0.44767094691360576 0.0
F F 0.5272639493675418 0.46902006664914137 0.757927763027266 0.0
F F 0.533848896121224 0.5065671331984719 0.2561338871603416 0.0
F F 0.6041425986676183 0.6010201666299193 0.4665096040674842 0.0
F F 0.41190107928379016 0.6217028904184922 0.515751569867092 0.0
F F 0.3913084235385512 0.443000276843065 0.562511885695223 0.0
F F 0.6236848573648724 0.37355692504019417 0.5057635232037557 0.0
N N 0.4608237329149953 0.3525907740072879 -0.006820371981583536 0.0
N N 0.5192407564897018 0.6537682261042936 -0.07840653157353125 0.0
N N 0.6445851260897006 0.4879683292773155 -0.07875451387737573 0.0
N N 0.36636991131724683 0.5122546411154921 0.09203749543705333 0.0
_cell_length_a 13.6316
_cell_length_b 13.6316
_cell_length_c 7.968
_cell_angle_alpha 90.0
_cell_angle_beta 90.0
_cell_angle_gamma 90.0
_symmetry_space_group_name_H-M         'P 1'
_symmetry_Int_Tables_number            1
loop_
_symmetry_equiv_pos_as_xyz
   'x, y, z'
                         
loop_
_atom_site_label
_atom_site_type_symbol
_atom_site_fract_x 
_atom_site_fract_y
_atom_site_fract_z
_atom_site_charge
C C 0.5261278085185406 0.7192821572137269 0.13946027244450257 0.0
C C 0.5251203395280146 0.8078820154339057 0.13324447997228825 0.0
C C 0.5137574738603571 0.27125333481567476 0.2098708204842358 0.0
C C 0.4525800764227085 0.18152568416915735 0.1610622263417406 0.0
C C 0.30679441878353786 0.497235192322382 0.13891126128148984 0.0
C C 0.2082670659324449 0.5360999718197581 0.185578566300054 0.0
C C 0.6731699876929684 0.4598530580977408 0.09347482020698712 0.0
C C 0.8240230706490893 0.49249363952646374 0.09985604915853198 0.0
C C 0.45457016624008817 0.6885232785622866 0.8369273046510243 0.0
C C 0.4459850583848695 0.8154675447497259 0.9213307380393637 0.0
C C 0.5457789031373934 0.2780797794889277 0.8429768100544707 0.0
C C 0.5323668136048567 0.19496544093664306 0.8626583786246934 0.0
C C 0.7283868099651224 0.6221875102312635 0.8617136584380222 0.0
C C 0.7972586835296188 0.4891098834952648 0.8609918820631817 0.0
C C 0.3468925229431911 0.4542801341123145 0.8350825508113214 0.0
C C 0.21060744599947567 0.4657763233575774 0.8796159828396871 0.0
C C 0.5050638078991929 0.13321140401017384 -0.01671550478766115 0.0
C C 0.5177768978757749 0.048456585950159066 -0.014784551574460672 0.0
C C 0.5023762184376268 0.888101316209828 0.049263972938753425 0.0
C C 0.4858340948656362 0.9524927083193855 -0.14540418465116167 0.0
C C 0.8550629272068984 0.43490815936130234 0.0800955372936212 0.0
C C 0.963063439830667 0.48821019598120535 0.016679254345298267 0.0
C C 0.18148396683231086 0.5186229597503608 -0.010027249494375019 0.0
C C -0.0052780547262523715 0.5452428131440208 -0.0405125841894827 0.0
H H 0.5496558085185406 0.6760721572137269 0.24742327244450255 0.0
H H 0.5509103395280145 0.8457220154339057 0.24514247997228822 0.0
H H 0.4902294738603571 0.31446333481567484 0.31783382048423575 0.0
H H 0.42679007642270844 0.1436866841691574 0.27296022634174055 0.0
H H 0.35000441878353794 0.520763192322382 0.2468742612814898 0.0
H H 0.1704280659324449 0.5618899718197581 0.297476566300054 0.0
H H 0.6299599876929685 0.43632505809774086 0.2014378202069871 0.0
H H 0.8618630706490894 0.4667036395264637 0.21175404915853197 0.0
H H 0.43104216624008823 0.6453132785622866 0.7289643046510241 0.0
H H 0.4201950583848695 0.853307544749726 0.8094327380393637 0.0
H H 0.5693069031373934 0.32128977948892773 0.7350138100544705 0.0
H H 0.5581568136048566 0.15712644093664307 0.7507603786246934 0.0
H H 0.6851768099651224 0.6457155102312636 0.753750658438022 0.0
H H 0.8350986835296188 0.5148998834952648 0.7490938820631815 0.0
H H 0.39010252294319125 0.43075213411231456 0.7271195508113214 0.0
H H 0.1727684459994757 0.4399863233575774 0.7677179828396871 0.0
Cu Cu 0.4910966963933257 0.4651921986425976 0.008062461211328323 0.0
Si Si 0.46569474379682546 0.49532093168134594 0.510697536802165 0.0
F F 0.4887819711696992 0.5290241797024543 0.7989304522672203 0.0
F F 0.49963936052727903 0.5570754871191171 0.3783656635154207 0.0
F F 0.5553531490077805 0.5495260029966541 0.5300203118557717 0.0
F F 0.38467480620115685 0.569752314367667 0.5154567871965104 0.0
F F 0.38065922600191204 0.3784899362619614 0.5309405808138159 0.0
F F 0.6124548756696782 0.38913517170318296 0.483809617046985 0.0
N N 0.46230128134598303 0.3529127970148207 0.00979794616740893 0.0
N N 0.4375824748285317 0.6286086154306011 -0.021500646568348252 0.0
N N 0.6600618872555686 0.5316599494288337 -0.06749617152928224 0.0
N N 0.3472158174603374 0.5309226947832281 0.011966914172263721 0.0
_cell_length_a 13.6316
_cell_length_b 13.6316
_cell_length_c 7.968
_cell_angle_alpha 90.0
_cell_angle_beta 90.0
_cell_angle_gamma 90.0
_symmetry_space_group_name_H-M         'P 1'
_symmetry_Int_Tables_number            1
loop_
_symmetry_equiv_pos_as_xyz
   'x, y, z'
                         
loop_
_atom_site_label
_atom_site_type_symbol
_atom_site_fract_x 
_atom_site_fract_y
_atom_site_fract_z
_atom_site_charge
C C 0.530209487658022 0.6537177067418809 0.1553807779100614 0.0
C C 0.5135882275905062 0.8035451207068318 0.1498377815924846 0.0
C C 0.41074137952147854 0.30344035521720814 0.05994592027613698 0.0
C C 0.46519477534056564 0.2527844591568371 0.14685680737753187 0.0
C C 0.2881958221060572 0.5285634541290509 0.1835630453678298 0.0
C C 0.1689500914060706 0.5634399355311672 0.19358516725301997 0.0
C C 0.6935991139890649 0.5460413500124993 0.11091779902391556 0.0
C C 0.8248329965724313 0.4949950010594444 0.13289054024745742 0.0
C C 0.4261877861056774 0.7290812688367345 0.8532166275332917 0.0
C C 0.5359747454235018 0.7841916947547237 0.8197373290568281 0.0
C C 0.5174460896973829 0.3010234404720848 0.8662464450508125 0.0
C C 0.5474226420753979 0.17534556087975775 0.8834755110197041 0.0
C C 0.6398279464412563 0.51222152836148 0.8829382890148487 0.0
C C 0.8360598802003473 0.5083937996324227 0.9420350119361911 0.0
C C 0.28003661876579333 0.4605326377517708 0.8697144752492186 0.0
C C 0.23772604414896586 0.44314555839995723 0.8607556006318866 0.0
C C 0.4670919425055491 0.1333200822995014 -0.0005567021102308113 0.0
C C 0.5149538690486092 0.03791101250402925 -0.007073669204504049 0.0
C C 0.47295697355579897 0.8179219401258145 0.017477491800290377 0.0
C C 0.5265531106951228 0.9749446567500977 0.04705359975361553 0.0
C C 0.8355398246813479 0.525812838419904 -0.10022984901970983 0.0
C C 0.9491097860054877 0.5467880577849605 -0.032973417925300744 0.0
C C 0.11964472775573215 0.47927512378383497 -0.0482378271138718 0.0
C C 0.02644408024105169 0.5180959264152103 -0.009488119522188072 0.0
H H 0.553737487658022 0.6105077067418809 0.2633437779100614 0.0
H H 0.5393782275905061 0.8413851207068318 0.26173578159248456 0.0
H H 0.3872133795214785 0.3466503552172081 0.16790892027613696 0.0
H H 0.4394047753405656 0.21494545915683713 0.25875480737753187 0.0
H H 0.3314058221060573 0.5520914541290509 0.2915260453678298 0.0
H H 0.1311110914060706 0.5892299355311672 0.30548316725302 0.0
H H 0.650389113989065 0.5225133500124993 0.21888079902391555 0.0
H H 0.8626729965724312 0.46920500105944435 0.2447885402474574 0.0
H H 0.40265978610567754 0.6858712688367345 0.7452536275332917 0.0
H H 0.5101847454235018 0.8220316947547237 0.707839329056828 0.0
H H 0.5409740896973829 0.3442334404720849 0.7582834450508125 0.0
H H 0.5732126420753979 0.13750656087975777 0.7715775110197041 0.0
H H 0.5966179464412564 0.53574952836148 0.7749752890148486 0.0
H H 0.8738998802003473 0.5341837996324227 0.830137011936191 0.0
H H 0.32324661876579347 0.43700463775177084 0.7617514752492186 0.0
H H 0.19988704414896585 0.41735555839995725 0.7488576006318866 0.0
Cu Cu 0.5306720272178083 0.534733265376523 0.0757516135886087 0.0
Si Si 0.5152617262105933 0.490629372772414 0.5378995824121945 0.0
F F 0.49368277076823913 0.48797279730567406 0.664285117278105 0.0
F F 0.4443553495505851 0.4717717913144725 0.28728103752384454 0.0
F F 0.6123913234489083 0.6149346260283025 0.4394798771544579 0.0
F F 0.4413757190683876 0.5770639354396406 0.5023599253127635 0.0
F F 0.43389184376569767 0.40920400452520483 0.5542344635164089 0.0
F F 0.6247449483274373 0.383202374056674 0.3880113459403138 0.0
N N 0.5158388121635822 0.36668299585098374 0.023642602333303713 0.0
N N 0.47205924785165887 0.6541851237208196 0.0028886192951502157 0.0
N N 0.6778521050131907 0.4876693438467961 -0.05488548626720757 0.0
N N 0.35953303314378005 0.451128683587749 -0.05841808552326967 0.0
