_cell_length_a 13.6316
_cell_length_b 13.6316
_cell_length_c 7.968
_cell_angle_alpha 90.0
_cell_angle_beta 90.0
_cell_angle_gamma 90.0
_symmetry_space_group_name_H-M         'P 1'
_symmetry_Int_Tables_number            1
loop_
_symmetry_equiv_pos_as_xyz
   'x, y, z'
                         
loop_
_atom_site_label
_atom_site_type_symbol
_atom_site_fract_x 
_atom_site_fract_y
_atom_site_fract_z
_atom_site_charge
C C 0.5211419233620974 0.7569720193830392 0.20465570050972465 0.0
C C 0.5742122645328589 0.8539897672568948 0.15465491074836546 0.0
C C 0.4272416992339816 0.2928689411220281 0.1452633648262972 0.0
C C 0.525385181709814 0.2229622360213514 0.19987520954657173 0.0
C C 0.28279406188691636 0.5067302629429435 0.13537101649641758 0.0
C C 0.2077205553036818 0.5158419640125071 0.10183280175469862 0.0
C C 0.7138012098144144 0.4495499929263428 0.17263807992935573 0.0
C C 0.8281596845166064 0.5071149430104578 0.19004482431438421 0.0
C C 0.49702846980521637 0.6787237407591707 0.8670520959620656 0.0
C C 0.4706789063884729 0.7275048413002142 0.8878249639028797 0.0
C C 0.5742839571932722 0.30162591792277366 0.9027765075692248 0.0
C C 0.49228216007564685 0.24454073388911576 0.8068519249979931 0.0
C C 0.6400622792616358 0.5112565778000961 0.8260300068663198 0.0
C C 0.8723694285323277 0.4956956156253373 0.8888929005923284 0.0
C C 0.3341907989711546 0.42404972239605065 0.8266378982469474 0.0
C C 0.226628132976195 0.4674574645778086 0.8311134410877227 0.0
C C 0.5025040523357981 0.14672619397413827 -0.0032041648954824124 0.0
C C 0.5130044096034954 0.06364472992562308 -0.02014887259206003 0.0
C C 0.5207312308515019 0.8461221953264512 0.11957709871406262 0.0
C C 0.4983171728423948 0.9331554528789551 -0.01195554771663587 0.0
C C 0.8781867868464929 0.5112097892040969 -0.07964105700358781 0.0
C C 0.9950080947083475 0.4394863064824598 0.06616457212533729 0.0
C C 0.1808817398850303 0.47885503164317966 -0.04419292312737477 0.0
C C 0.05140637961901843 0.48536287648677334 0.08168082508671756 0.0
H H 0.5446699233620974 0.7137620193830392 0.3126187005097247 0.0
H H 0.6000022645328589 0.8918297672568948 0.2665529107483654 0.0
H H 0.40371369923398154 0.33607894112202813 0.2532263648262972 0.0
H H 0.4995951817098139 0.1851232360213514 0.31177320954657173 0.0
H H 0.32600406188691644 0.5302582629429435 0.24333401649641756 0.0
H H 0.16988155530368182 0.5416319640125071 0.2137308017546986 0.0
H H 0.6705912098144144 0.4260219929263428 0.2806010799293557 0.0
H H 0.8659996845166064 0.4813249430104577 0.30194282431438424 0.0
H H 0.47350046980521643 0.6355137407591708 0.7590890959620654 0.0
H H 0.44488890638847284 0.7653448413002142 0.7759269639028796 0.0
H H 0.5978119571932723 0.3448359179227737 0.7948135075692248 0.0
H H 0.5180721600756468 0.20670173388911575 0.694953924997993 0.0
H H 0.5968522792616359 0.5347845778000961 0.7180670068663197 0.0
H H 0.9102094285323277 0.5214856156253374 0.7769949005923282 0.0
H H 0.3774007989711547 0.4005217223960507 0.7186748982469473 0.0
H H 0.18878913297619498 0.44166746457780864 0.7192154410877226 0.0
Cu Cu 0.5092174211445537 0.5217424038171196 -0.0755933356918852 0.0
Si Si 0.5128277024709829 0.5540799305610407 0.45391022895754746 0.0
F F 0.5172266061860453 0.5194907388087264 0.7288077974477336 0.0
F F 0.5106295295538491 0.448383129136367 0.25442644747449866 0.0
F F 0.5764046493773303 0.5550733877645002 0.4938122805300969 0.0
F F 0.4204331029879339 0.6159781102055568 0.5250620788638024 0.0
F F 0.39867591206434444 0.3564253050371354 0.5001935185667917 0.0
F F 0.5890526008040823 0.4194115187561501 0.631562747737484 0.0
N N 0.5008111336808856 0.2962082407201761 0.003637889588911035 0.0
N N 0.5491893272428191 0.6603895110690847 -0.013570506839620888 0.0
N N 0.6684647725370054 0.5164496580269571 0.03104192832123801 0.0
N N 0.3665830439023321 0.5001055163435949 -0.0003797837830522954 0.0
_cell_length_a 13.6316
_cell_length_b 13.6316
_cell_length_c 7.968
_cell_angle_alpha 90.0
_cell_angle_beta 90.0
_cell_angle_gamma 90.0
_symmetry_space_group_name_H-M         'P 1'
_symmetry_Int_Tables_number            1
loop_
_symmetry_equiv_pos_as_xyz
   'x, y, z'
                         
loop_
_atom_site_label
_atom_site_type_symbol
_atom_site_fract_x 
_atom_site_fract_y
_atom_site_fract_z
_atom_site_charge
C C 0.5540201558378077 0.7198186546412674 0.10825490769716223 0.0
C C 0.5292786419503627 0.8586820595825472 0.11242736995948673 0.0
C C 0.4879404381639946 0.30607695681756614 0.11038682406035763 0.0
C C 0.48321615483180785 0.214049680519672 0.14476450534761806 0.0
C C 0.30293280588467275 0.45411205432942353 0.10965216852934365 0.0
C C 0.20892322342956393 0.5713591161772149 0.11020415051074423 0.0
C C 0.6542803299815605 0.45332920056788745 0.15328023044067324 0.0
C C 0.8109923219175289 0.46397892934168017 0.08487416839295943 0.0
C C 0.469519230255359 0.6815078105493401 0.8329397162555918 0.0
C C 0.41707198054285405 0.7837121750147487 0.8372857308604319 0.0
C C 0.5174986983980376 0.31585624036282023 0.834490594792714 0.0
C C 0.5218847714760012 0.2322228785482819 0.8444065570599083 0.0
C C 0.6701007087335411 0.5358896383195052 0.8708300437385973 0.0
C C 0.7901843386747676 0.465255549921207 0.8770972328705408 0.0
C C 0.32170027034853815 0.4611517268705677 0.8957661026905184 0.0
C C 0.18752485478006164 0.48661823780417607 0.9888858425708525 0.0
C C 0.5160332081905962 0.05226848276087521 -0.06339596855077743 0.0
C C 0.5187994127140492 0.08696009019704912 0.033259106861984036 0.0
C C 0.494963298464276 0.8570395221744754 -0.0696278415893362 0.0
C C 0.5113426213344942 0.9452549073922015 0.025368402228061474 0.0
C C 0.84224576580455 0.5162989222651477 -0.05291412197548071 0.0
C C 0.9620617398123641 0.487729118566988 0.028876625330922428 0.0
C C 0.2282223807545173 0.4997740405089824 -0.0621014383858965 0.0
C C 0.030285755520102146 0.48619753076737715 0.10418017508565416 0.0
H H 0.5775481558378077 0.6766086546412675 0.2162179076971622 0.0
H H 0.5550686419503627 0.8965220595825472 0.2243253699594867 0.0
H H 0.4644124381639947 0.34928695681756616 0.2183498240603576 0.0
H H 0.4574261548318078 0.176210680519672 0.25666250534761803 0.0
H H 0.34614280588467283 0.47764005432942347 0.21761516852934362 0.0
H H 0.17108422342956395 0.5971491161772148 0.2221021505107442 0.0
H H 0.6110703299815605 0.42980120056788745 0.2612432304406732 0.0
H H 0.8488323219175289 0.43818892934168013 0.1967721683929594 0.0
H H 0.44599123025535914 0.6382978105493401 0.7249767162555917 0.0
H H 0.39128198054285407 0.8215521750147486 0.7253877308604318 0.0
H H 0.5410266983980376 0.3590662403628203 0.7265275947927139 0.0
H H 0.5476747714760012 0.19438387854828193 0.7325085570599082 0.0
H H 0.6268907087335411 0.5594176383195052 0.7628670437385972 0.0
H H 0.8280243386747675 0.491045549921207 0.7651992328705407 0.0
H H 0.36491027034853823 0.4376237268705677 0.7878031026905182 0.0
H H 0.14968585478006166 0.46082823780417603 0.8769878425708525 0.0
Cu Cu 0.5134925986764904 0.5379610686503883 0.015380991805958226 0.0
Si Si 0.49247978646358986 0.4931878533221316 0.49742478582786437 0.0
F F 0.5014941746009267 0.5051447561184857 0.6572331986961624 0.0
F F 0.5305674998429014 0.48501994172943996 0.15338435825925126 0.0
F F 0.5800574902796007 0.5595764068517228 0.4504876042468849 0.0
F F 0.4165593052098072 0.5569767269878697 0.4451214455323476 0.0
F F 0.4027248632734788 0.4124654660500022 0.4596184010210247 0.0
F F 0.5456665850011683 0.4343025394531538 0.5444100549699695 0.0
N N 0.5260502981919766 0.35271252388445573 -0.04686962356502248 0.0
N N 0.4888314897416896 0.6093772676874687 0.050449607933945685 0.0
N N 0.670542223508301 0.5349313111905298 -0.04457030159230715 0.0
N N 0.370438913996675 0.47792620060988955 0.011473425585931854 0.0
_cell_length_a 13.6316
_cell_length_b 13.6316
_cell_length_c 7.968
_cell_angle_alpha 90.0
_cell_angle_beta 90.0
_cell_angle_gamma 90.0
_symmetry_space_group_name_H-M         'P 1'
_symmetry_Int_Tables_number            1
loop_
_symmetry_equiv_pos_as_xyz
   'x, y, z'
                         
loop_
_atom_site_label
_atom_site_type_symbol
_atom_site_fract_x 
_atom_site_fract_y
_atom_site_fract_z
_atom_site_charge
C C 0.5292573825019146 0.7140295213904255 0.100268455261173 0.0
C C 0.5499031527305502 0.7722360317909901 0.11145717006380056 0.0
C C 0.47554902096335794 0.3038909026232613 0.10691278552078223 0.0
C C 0.4757301515818757 0.17362643972549804 0.25564622261495795 0.0
C C 0.3082069246233422 0.5798505000378245 0.2183556447712691 0.0
C C 0.23949428017380306 0.47808996717868296 0.12303665734711258 0.0
C C 0.6533333384890876 0.42154724847525715 0.0326477203851929 0.0
C C 0.7999660364195899 0.45049658545137383 0.22269519015395997 0.0
C C 0.43915032169554147 0.7234787007224446 0.837809511650529 0.0
C C 0.44612980483608494 0.8364324483735531 0.8017762928919201 0.0
C C 0.5091618222395053 0.33136224583439494 0.8558404553181476 0.0
C C 0.5385394785391013 0.22619305216332697 0.7770485606335904 0.0
C C 0.7017352825381018 0.562563149384935 0.9253596196918087 0.0
C C 0.8177862991001521 0.5704783825134931 0.7987473134904014 0.0
C C 0.310088164335315 0.44311711587229713 0.8093285391033043 0.0
C C 0.19376152461750415 0.4533182395608612 0.8249315154877186 0.0
C C 0.5035581021354462 0.18043325466399052 0.014859616920643408 0.0
C C 0.4821446546320302 0.05166705418893223 0.05964445546798814 0.0
C C 0.5142244101924084 0.8668261684717243 0.04472273019602545 0.0
C C 0.545708493370465 0.993576889171682 -0.03574622158360587 0.0
C C 0.807927643249945 0.478438505114151 -0.0450318525358362 0.0
C C 0.9230609413961048 0.49553666574856997 -0.003088525427511241 0.0
C C 0.1113715943895557 0.5526850282104235 0.03564470724523472 0.0
C C 0.0742517740328038 0.4716198258361132 0.07439887181482907 0.0
H H 0.5527853825019144 0.6708195213904256 0.20823145526117295 0.0
H H 0.5756931527305502 0.8100760317909901 0.22335517006380054 0.0
H H 0.45202102096335794 0.3471009026232613 0.21487578552078218 0.0
H H 0.44994015158187567 0.13578743972549806 0.36754422261495795 0.0
H H 0.3514169246233423 0.6033785000378245 0.32631864477126904 0.0
H H 0.20165528017380308 0.503879967178683 0.23493465734711255 0.0
H H 0.6101233384890876 0.3980192484752572 0.14061072038519287 0.0
H H 0.8378060364195898 0.4247065854513738 0.33459319015396 0.0
H H 0.4156223216955416 0.6802687007224446 0.7298465116505288 0.0
H H 0.42033980483608496 0.8742724483735531 0.68987829289192 0.0
H H 0.5326898222395053 0.37457224583439497 0.7478774553181474 0.0
H H 0.5643294785391012 0.18835405216332698 0.6651505606335903 0.0
H H 0.6585252825381018 0.586091149384935 0.8173966196918087 0.0
H H 0.8556262991001521 0.5962683825134931 0.6868493134904013 0.0
H H 0.3532981643353151 0.4195891158722972 0.7013655391033041 0.0
H H 0.15592252461750414 0.4275282395608612 0.7130335154877185 0.0
Cu Cu 0.4440908120101891 0.497198001047932 -0.012521521213528519 0.0
Si Si 0.5137588421023362 0.4856749353383479 0.48193339662870943 0.0
F F 0.5230557561848203 0.5103765904769587 0.7354748730686583 0.0
F F 0.5203551226327087 0.4838167648621937 0.26793716486604047 0.0
F F 0.5990759417641879 0.5909774913581652 0.5618552847664228 0.0
F F 0.40290664557559963 0.5979648649933327 0.5075728020557939 0.0
F F 0.39095141008386375 0.41614549611737556 0.40671972610697094 0.0
F F 0.5675742529650118 0.38168313246870234 0.5708006754484302 0.0
N N 0.5687503634904314 0.34754039397492914 -0.01881188713191632 0.0
N N 0.49648849782155774 0.6060218023286957 0.06326583040923944 0.0
N N 0.6419056599890809 0.5058325427007796 -0.005285169802565292 0.0
N N 0.36695085721629 0.49754727231156415 0.035125257729332365 0.0
_cell_length_a 13.6316
_cell_length_b 13.6316
_cell_length_c 7.968
_cell_angle_alpha 90.0
_cell_angle_beta 90.0
_cell_angle_gamma 90.0
_symmetry_space_group_name_H-M         'P 1'
_symmetry_Int_Tables_number            1
loop_
_symmetry_equiv_pos_as_xyz
   'x, y, z'
                         
loop_
_atom_site_label
_atom_site_type_symbol
_atom_site_fract_x 
_atom_site_fract_y
_atom_site_fract_z
_atom_site_charge
C C 0.5736016068549962 0.6550310025701053 0.10909411702535483 0.0
C C 0.594591925355721 0.7529089881588985 0.170809377412199 0.0
C C 0.46086268776706485 0.24885678457079932 0.11875137108843425 0.0
C C 0.45950859686243045 0.19139963619631165 0.1408166808127207 0.0
C C 0.3110903013626164 0.5786133354782098 0.201184970732523 0.0
C C 0.22033727070378817 0.4895834283042127 0.08566704956594216 0.0
C C 0.7184636147590863 0.4753837229681897 0.17569548413382463 0.0
C C 0.7827634863863479 0.532033245334511 0.18374654009710875 0.0
C C 0.45504713843951233 0.6769981456885632 0.8726125762669832 0.0
C C 0.4975007052602157 0.821357024745117 0.8724647999081787 0.0
C C 0.5525378034058513 0.2795603120640579 0.8084281655776308 0.0
C C 0.5024765738323448 0.17335618357285473 0.9228934556937617 0.0
C C 0.7068888358970591 0.544261659263249 0.9368656069667397 0.0
C C 0.7497457886006805 0.568889685073683 0.8160630331263806 0.0
C C 0.31883048947497156 0.47811212687566845 0.9112887868551606 0.0
C C 0.22076039541759512 0.4788993835434203 0.9643139467949299 0.0
C C 0.5193755094541608 0.1378923132018512 -0.05745319783961881 0.0
C C 0.5007710723526531 0.04927024215622988 -0.11336497217956483 0.0
C C 0.4291302995022923 0.8019075475300909 0.061079249255914105 0.0
C C 0.4955556480956141 0.9442836907430617 0.011315159475454598 0.0
C C 0.8354446875886068 0.47469772163080687 0.007147196043266735 0.0
C C 0.9480419918122144 0.5043214214290714 -0.006922229608053257 0.0
C C 0.13109091898095604 0.4788105585417007 0.06212368738492791 0.0
C C 0.028791865904010235 0.5213408453937312 -0.036621978689934255 0.0
H H 0.5971296068549962 0.6118210025701053 0.2170571170253548 0.0
H H 0.620381925355721 0.7907489881588985 0.282707377412199 0.0
H H 0.43733468776706486 0.2920667845707993 0.2267143710884342 0.0
H H 0.4337185968624304 0.15356063619631166 0.2527146808127207 0.0
H H 0.3543003013626165 0.6021413354782098 0.309147970732523 0.0
H H 0.18249827070378818 0.5153734283042127 0.19756504956594215 0.0
H H 0.6752536147590863 0.4518557229681897 0.2836584841338246 0.0
H H 0.8206034863863478 0.5062432453345109 0.2956445400971088 0.0
H H 0.4315191384395124 0.6337881456885632 0.764649576266983 0.0
H H 0.47171070526021575 0.8591970247451169 0.7605667999081787 0.0
H H 0.5760658034058513 0.322770312064058 0.7004651655776307 0.0
H H 0.5282665738323448 0.13551718357285475 0.8109954556937616 0.0
H H 0.6636788358970591 0.567789659263249 0.8289026069667396 0.0
H H 0.7875857886006805 0.594679685073683 0.7041650331263806 0.0
H H 0.3620404894749716 0.45458412687566846 0.8033257868551604 0.0
H H 0.18292139541759514 0.4531093835434203 0.8524159467949298 0.0
Cu Cu 0.5122133281791442 0.4855910770577203 0.06030567635770721 0.0
Si Si 0.5305825871159807 0.5358682788144711 0.4670216031080192 0.0
F F 0.49553187089935635 0.48673005539809594 0.7156709720472771 0.0
F F 0.5096905508054567 0.4927921728404764 0.3504725083805363 0.0
F F 0.5739439525641674 0.6129496311591351 0.49599353683911646 0.0
F F 0.4300928596600279 0.584895625365407 0.5200625561750175 0.0
F F 0.4689942000893237 0.37905334881510694 0.47790495013263906 0.0
F F 0.5248906439439499 0.4043048505758072 0.5190542989089385 0.0
N N 0.4904458751781112 0.35258769530586104 0.04005578193314514 0.0
N N 0.4574816223275645 0.669297810329598 -0.04021356125240978 0.0
N N 0.6339453308222623 0.529896605281839 0.030149714869921386 0.0
N N 0.3403895455510392 0.4893902181012032 0.0703227974163817 0.0
_cell_length_a 13.6316
_cell_length_b 13.6316
_cell_length_c 7.968
_cell_angle_alpha 90.0
_cell_angle_beta 90.0
_cell_angle_gamma 90.0
_symmetry_space_group_name_H-M         'P 1'
_symmetry_Int_Tables_number            1
loop_
_symmetry_equiv_pos_as_xyz
   'x, y, z'
                         
loop_
_atom_site_label
_atom_site_type_symbol
_atom_site_fract_x 
_atom_site_fract_y
_atom_site_fract_z
_atom_site_charge
C C 0.4887930510431524 0.7065645832692988 0.1862866071638339 0.0
C C 0.5362525746142264 0.7532279111496224 0.13980929284232027 0.0
C C 0.5129107964782775 0.30377624867203346 0.1387950034396754 0.0
C C 0.49319081709804724 0.1826237958631174 0.14690852288174464 0.0
C C 0.2685149299341017 0.5517373468196334 0.18238432448038858 0.0
C C 0.18536863225636727 0.5391755607304707 0.2218731749601576 0.0
C C 0.6900513596659288 0.45549678103473423 0.12420977518181332 0.0
C C 0.8464633978894404 0.44396542617913554 0.18111895158199925 0.0
C C 0.41940878914019936 0.7019047866145766 0.9258167250678996 0.0
C C 0.4481155859713404 0.8619215724472847 0.8934815842391122 0.0
C C 0.5400322879728183 0.3097426440969155 0.8346545602100204 0.0
C C 0.5557475685452374 0.22258007963748408 0.9525743114729799 0.0
C C 0.7088245444413045 0.5491838390509457 0.8450145072663258 0.0
C C 0.790068424556633 0.5601809244057486 0.8334811105392396 0.0
C C 0.3653581595749451 0.5086323970390807 0.9233705837854054 0.0
C C 0.22904645595240253 0.43112013289761714 0.8401416389353064 0.0
C C 0.5144051409860816 0.1327343650767754 -0.013189385668391297 0.0
C C 0.5137428183912532 0.032818365265981905 0.03141712293876944 0.0
C C 0.45018019859835595 0.8240483670528974 -0.01184810622031383 0.0
C C 0.5076474589924636 0.945245774446494 0.08949574604355993 0.0
C C 0.8789727761661561 0.5514443956264652 -0.007137207135289918 0.0
C C 0.9061041191225158 0.48492617468320354 -0.005857656102838512 0.0
C C 0.12895806466843368 0.49976945867809386 -0.0018526529565449478 0.0
C C 0.09155759329295662 0.520250181487042 0.060002423945058544 0.0
H H 0.5123210510431524 0.6633545832692989 0.2942496071638339 0.0
H H 0.5620425746142264 0.7910679111496224 0.25170729284232024 0.0
H H 0.4893827964782776 0.3469862486720335 0.24675800343967538 0.0
H H 0.4674008170980472 0.1447847958631174 0.2588065228817446 0.0
H H 0.3117249299341018 0.5752653468196334 0.2903473244803886 0.0
H H 0.14752963225636728 0.5649655607304707 0.3337711749601576 0.0
H H 0.6468413596659288 0.43196878103473424 0.23217277518181328 0.0
H H 0.8843033978894403 0.4181754261791355 0.29301695158199925 0.0
H H 0.3958807891401994 0.6586947866145766 0.8178537250678994 0.0
H H 0.42232558597134034 0.8997615724472848 0.7815835842391121 0.0
H H 0.5635602879728183 0.35295264409691557 0.7266915602100202 0.0
H H 0.5815375685452374 0.1847410796374841 0.8406763114729798 0.0
H H 0.6656145444413045 0.5727118390509457 0.7370515072663256 0.0
H H 0.8279084245566329 0.5859709244057486 0.7215831105392395 0.0
H H 0.40856815957494513 0.48510439703908065 0.8154075837854053 0.0
H H 0.19120745595240254 0.40533013289761716 0.7282436389353063 0.0
Cu Cu 0.4983423816175871 0.4840566061557262 -0.10034810784189693 0.0
Si Si 0.49703801831415195 0.5112251043927788 0.49662196598428027 0.0
F F 0.5449341659613122 0.43741562743992846 0.7570813330577041 0.0
F F 0.5274491367542951 0.5126426316358582 0.25831494886013123 0.0
F F 0.6006431783972249 0.5571828119941369 0.4434412473345768 0.0
F F 0.36429696076505813 0.6131803938940221 0.48077088763366493 0.0
F F 0.3822760267207134 0.415992400075777 0.5508941362442612 0.0
F F 0.5855273406658525 0.4394931494283627 0.5317769662312336 0.0
N N 0.5104274270870239 0.3536712994347713 -0.03295260800566911 0.0
N N 0.4992512750132769 0.6291368709683401 0.0073482933261327914 0.0
N N 0.6515808284218219 0.5458589236490139 0.04372930592063033 0.0
N N 0.41349151922132127 0.46808138809827254 0.014756578353400376 0.0
_cell_length_a 13.6316
_cell_length_b 13.6316
_cell_length_c 7.968
_cell_angle_alpha 90.0
_cell_angle_beta 90.0
_cell_angle_gamma 90.0
_symmetry_space_group_name_H-M         'P 1'
_symmetry_Int_Tables_number            1
loop_
_symmetry_equiv_pos_as_xyz
   'x, y, z'
                         
loop_
_atom_site_label
_atom_site_type_symbol
_atom_site_fract_x 
_atom_site_fract_y
_atom_site_fract_z
_atom_site_charge
C C 0.5808592093783557 0.7347537433422565 0.1384309407355242 0.0
C C 0.4665185504409168 0.8164613110775147 0.08801459245543566 0.0
C C 0.4656824235973215 0.25025940040524286 0.14953769059822875 0.0
C C 0.5051054759893788 0.2046307681920041 0.07555087800817564 0.0
C C 0.32011080521505947 0.4995402355060953 0.1457964677179774 0.0
C C 0.22665100839778485 0.5494301922398344 0.19577404642594562 0.0
C C 0.7100532688515161 0.4254520836940519 0.061116430404261436 0.0
C C 0.8374838329647992 0.5408845683695909 0.14451874657871297 0.0
C C 0.513307215030917 0.6901126391581202 0.7809271576512397 0.0
C C 0.45254398708566623 0.7935480713431416 0.917743774252672 0.0
C C 0.500242012366551 0.35177945689466084 0.8671290167114011 0.0
C C 0.5194562979206769 0.21127788472934428 0.9212001125587388 0.0
C C 0.7388588171882543 0.5299103186973337 0.8353463508216207 0.0
C C 0.7560441518920279 0.522788536293804 0.8890571549805252 0.0
C C 0.3001226189862645 0.4601142665104835 0.9281539789519683 0.0
C C 0.1886714413504431 0.5126664558139234 0.8449463648654937 0.0
C C 0.4445957504918154 0.12114555237100359 -0.05459644855855976 0.0
C C 0.4908660821431839 0.048565307641493395 0.04284864302221626 0.0
C C 0.5297089489948869 0.7941324991413475 -0.058694412314484294 0.0
C C 0.46313059949421626 0.9539156167898649 0.030040784393487785 0.0
C C 0.8778689819081845 0.5354691647156474 -0.006066053043107496 0.0
C C 0.9239013050625831 0.5057509235574017 0.002731500953507011 0.0
C C 0.12615780053894987 0.4936948781800435 -0.05055297036805098 0.0
C C 0.026268441058411394 0.48462353910136446 0.019252112112656483 0.0
H H 0.6043872093783555 0.6915437433422565 0.24639394073552418 0.0
H H 0.49230855044091676 0.8543013110775147 0.19991259245543563 0.0
H H 0.4421544235973215 0.2934694004052429 0.2575006905982287 0.0
H H 0.47931547598937885 0.1667917681920041 0.18744887800817564 0.0
H H 0.36332080521505955 0.5230682355060953 0.2537594677179774 0.0
H H 0.18881200839778484 0.5752201922398343 0.30767204642594564 0.0
H H 0.6668432688515161 0.4019240836940519 0.1690794304042614 0.0
H H 0.8753238329647992 0.5150945683695908 0.25641674657871294 0.0
H H 0.48977921503091704 0.6469026391581203 0.6729641576512396 0.0
H H 0.4267539870856662 0.8313880713431416 0.8058457742526719 0.0
H H 0.5237700123665509 0.3949894568946609 0.759166016711401 0.0
H H 0.5452462979206769 0.17343888472934427 0.8093021125587387 0.0
H H 0.6956488171882544 0.5534383186973337 0.7273833508216205 0.0
H H 0.7938841518920279 0.5485785362938039 0.7771591549805251 0.0
H H 0.3433326189862646 0.4365862665104835 0.8201909789519681 0.0
H H 0.15083244135044307 0.4868764558139234 0.7330483648654936 0.0
Cu Cu 0.5594181138083988 0.5146902485697824 0.06357115087899262 0.0
Si Si 0.48275651004170417 0.5050312617559414 0.5651568557681939 0.0
F F 0.5008985231716518 0.5277712263657421 0.6486065030793545 0.0
F F 0.42734248308743034 0.49009557991491215 0.230890802964598 0.0
F F 0.5935984695028993 0.5483084814642065 0.5131947743875589 0.0
F F 0.39282517817071266 0.5810742781207252 0.49809129690806625 0.0
F F 0.46320291940138897 0.4022626250662955 0.3806047329907126 0.0
F F 0.5703330665559792 0.42145073764277075 0.49307271838024247 0.0
N N 0.5586106301125593 0.37472006276400727 0.0020413472659652427 0.0
N N 0.47342587272035025 0.6604529372925836 0.050593996115054315 0.0
N N 0.6520232774322438 0.5323064982619579 -0.012156869930020698 0.0
N N 0.3404444821466444 0.4574774271821862 -0.020474965416605144 0.0
_cell_length_a 13.6316
_cell_length_b 13.6316
_cell_length_c 7.968
_cell_angle_alpha 90.0
_cell_angle_beta 90.0
_cell_angle_gamma 90.0
_symmetry_space_group_name_H-M         'P 1'
_symmetry_Int_Tables_number            1
loop_
_symmetry_equiv_pos_as_xyz
   'x, y, z'
                         
loop_
_atom_site_label
_atom_site_type_symbol
_atom_site_fract_x 
_atom_site_fract_y
_atom_site_fract_z
_atom_site_charge
C C 0.549532250722063 0.7301825948960263 0.10209578429686944 0.0
C C 0.47663415319041424 0.7879172439796335 0.07170627984157178 0.0
C C 0.46938332005212313 0.3127878699390495 0.199208570567288 0.0
C C 0.46677921494038377 0.1946754401181951 0.16859584019579194 0.0
C C 0.2908254892413499 0.5106770374766448 0.22296294533467914 0.0
C C 0.2326832458353076 0.5333661701543494 0.18908267204849924 0.0
C C 0.7002145666013007 0.4565243281877324 0.12389534972379833 0.0
C C 0.8009918928835734 0.46185878552137943 0.10669566199661039 0.0
C C 0.46976143012683097 0.7246952463095403 0.8645538933487787 0.0
C C 0.5149859944217048 0.8140402547124221 0.78546119964482 0.0
C C 0.5529579054424603 0.3034890382768878 0.9005887494545214 0.0
C C 0.5355948637393352 0.21773478860573578 0.7759374246683753 0.0
C C 0.7223223573738682 0.5048635488861719 0.8752349679207693 0.0
C C 0.7807024800483564 0.5553864542972562 0.8783541335298971 0.0
C C 0.28582602063933615 0.45841115372897295 0.9109829294410315 0.0
C C 0.18482631598151486 0.5002359094749542 0.8690081112248166 0.0
C C 0.4690814149907025 0.13320475495452627 -0.06249353187750311 0.0
C C 0.45978220508893025 0.02210218647778027 0.008219649719892445 0.0
C C 0.4804438194831355 0.8595944499731849 0.013093188299413177 0.0
C C 0.49909483451048514 0.9739495857499731 0.02789624217984646 0.0
C C 0.8755111339743317 0.5087034475067639 -0.025024294035958804 0.0
C C 0.9394684745429223 0.4205318438688806 -0.04341019337063207 0.0
C C 0.12745750405414008 0.5375950581046797 0.052821460695397025 0.0
C C 0.1354875703242248 0.5367170318905717 -0.03954932645742567 0.0
H H 0.573060250722063 0.6869725948960264 0.2100587842968694 0.0
H H 0.5024241531904142 0.8257572439796335 0.18360427984157177 0.0
H H 0.44585532005212314 0.3559978699390495 0.307171570567288 0.0
H H 0.44098921494038373 0.15683644011819511 0.28049384019579193 0.0
H H 0.33403548924134996 0.5342050374766448 0.3309259453346791 0.0
H H 0.19484424583530763 0.5591561701543494 0.30098067204849926 0.0
H H 0.6570045666013007 0.4329963281877325 0.2318583497237983 0.0
H H 0.8388318928835734 0.4360687855213794 0.21859366199661037 0.0
H H 0.4462334301268311 0.6814852463095403 0.7565908933487786 0.0
H H 0.48919599442170464 0.8518802547124221 0.6735631996448198 0.0
H H 0.5764859054424603 0.3466990382768878 0.7926257494545212 0.0
H H 0.5613848637393352 0.17989578860573577 0.6640394246683753 0.0
H H 0.6791123573738682 0.5283915488861718 0.7672719679207692 0.0
H H 0.8185424800483564 0.5811764542972562 0.766456133529897 0.0
H H 0.32903602063933624 0.43488315372897296 0.8030199294410314 0.0
H H 0.14698731598151485 0.4744459094749542 0.7571101112248164 0.0
Cu Cu 0.5061387257246829 0.4857207401988861 0.036154325525328546 0.0
Si Si 0.5129582441293802 0.46586311253800883 0.4336936018123195 0.0
F F 0.519341986812417 0.5327150299066951 0.8012483000696667 0.0
F F 0.5369827594671983 0.49510232299465123 0.2763104210661342 0.0
F F 0.6184019023873947 0.584204195392177 0.45500126003794067 0.0
F F 0.39328239415981525 0.6029374852013413 0.5090883729994498 0.0
F F 0.39706160579083316 0.40883969356902283 0.500930258834669 0.0
F F 0.6049926718244758 0.38266944674968695 0.46383059712434466 0.0
N N 0.47688404603436596 0.3752278640531642 -0.018371818069042936 0.0
N N 0.5126874399476724 0.6220111125097788 0.033969619001744236 0.0
N N 0.6362375540514924 0.5196529724655282 -0.020070013100745663 0.0
N N 0.3467745618109057 0.5512467121869289 -0.022828843199231712 0.0
