_cell_length_a 13.6316
_cell_length_b 13.6316
_cell_length_c 7.968
_cell_angle_alpha 90.0
_cell_angle_beta 90.0
_cell_angle_gamma 90.0
_symmetry_space_group_name_H-M         'P 1'
_symmetry_Int_Tables_number            1
loop_
_symmetry_equiv_pos_as_xyz
   'x, y, z'
                         
loop_
_atom_site_label
_atom_site_type_symbol
_atom_site_fract_x 
_atom_site_fract_y
_atom_site_fract_z
_atom_site_charge
C C 0.5356017889351177 0.6617366296049986 0.0648876341349044 0.0
C C 0.510149696588511 0.7937339463016141 0.08239294553356888 0.0
C C 0.5105342144435193 0.28566409238145085 0.1483044683259751 0.0
C C 0.5256607085424166 0.252797932261025 0.13510820763112516 0.0
C C 0.27600308740888013 0.527961954726583 0.1833952486242265 0.0
C C 0.20453441988060567 0.569083577621249 0.09338442232693012 0.0
C C 0.6788577099501572 0.44382819989612254 0.18131760762324478 0.0
C C 0.7801074127219909 0.43804188605638267 0.1760690871384088 0.0
C C 0.4804614767846774 0.7202480712058724 0.9190411904752767 0.0
C C 0.5216112828916684 0.8488890325828443 0.8528051002266446 0.0
C C 0.5175972666175983 0.2774239817973077 0.7993535238763115 0.0
C C 0.545742394609386 0.16680046938452436 0.9543325049037414 0.0
C C 0.6975573121972468 0.5352845981315784 0.8316584690235055 0.0
C C 0.8224926819582166 0.5458517667456402 0.8768446312592373 0.0
C C 0.28259698903172253 0.4242411731348493 0.9083864427228184 0.0
C C 0.2628730080488595 0.43745049819606424 0.8379425002929112 0.0
C C 0.49293482853842074 0.11727279487973369 0.04682825042240592 0.0
C C 0.5160668746126216 0.04757490015573078 0.044760045693290104 0.0
C C 0.5222368353293299 0.8293273449513542 0.025446170016889265 0.0
C C 0.5521266877290231 0.94179518416252 0.06545465545505223 0.0
C C 0.8152353139285343 0.5217389088999085 0.041582051947296354 0.0
C C 0.9091667882419177 0.4361770261326862 -0.0602589489921192 0.0
C C 0.18067141533398307 0.4865764904942122 0.04312947432847441 0.0
C C 0.06380461784599147 0.46128365769700386 0.05933569292540748 0.0
H H 0.5591297889351177 0.6185266296049986 0.1728506341349044 0.0
H H 0.5359396965885109 0.8315739463016142 0.19429094553356885 0.0
H H 0.4870062144435194 0.3288740923814509 0.2562674683259751 0.0
H H 0.4998707085424166 0.214958932261025 0.24700620763112513 0.0
H H 0.3192130874088802 0.551489954726583 0.29135824862422643 0.0
H H 0.16669541988060568 0.594873577621249 0.2052824223269301 0.0
H H 0.6356477099501572 0.42030019989612255 0.28928060762324476 0.0
H H 0.8179474127219909 0.41225188605638263 0.2879670871384088 0.0
H H 0.4569334767846774 0.6770380712058724 0.8110781904752766 0.0
H H 0.4958212828916683 0.8867290325828443 0.7409071002266445 0.0
H H 0.5411252666175983 0.3206339817973078 0.6913905238763114 0.0
H H 0.571532394609386 0.12896146938452438 0.8424345049037414 0.0
H H 0.6543473121972468 0.5588125981315782 0.7236954690235053 0.0
H H 0.8603326819582165 0.5716417667456402 0.7649466312592372 0.0
H H 0.32580698903172256 0.40071317313484933 0.8004234427228183 0.0
H H 0.22503400804885948 0.41166049819606426 0.7260445002929111 0.0
Cu Cu 0.5153705436503984 0.5051647794689011 -0.024353050362845165 0.0
Si Si 0.513293732053325 0.48547798391882 0.5162450468391881 0.0
F F 0.4752240998064646 0.5207183905739377 0.6446113103843895 0.0
F F 0.5108288522356269 0.5163192249807234 0.22067697233923167 0.0
F F 0.6169923383770931 0.5860037711060295 0.4382716894650644 0.0
F F 0.37889954042383406 0.5799664973694085 0.46989035653340244 0.0
F F 0.4004947329131718 0.4057225513749889 0.5480458860095349 0.0
F F 0.5918146322331714 0.43940264617450037 0.5131285244632495 0.0
N N 0.4862407532988978 0.36068762767179235 0.026695775606296202 0.0
N N 0.509420279012103 0.6577362427179181 -0.03314815987809457 0.0
N N 0.6441314016027113 0.4728558046544628 -0.0332455407661172 0.0
N N 0.31603713348332846 0.4958685553275447 0.020392988552504064 0.0
_cell_length_a 13.6316
_cell_length_b 13.6316
_cell_length_c 7.968
_cell_angle_alpha 90.0
_cell_angle_beta 90.0
_cell_angle_gamma 90.0
_symmetry_space_group_name_H-M         'P 1'
_symmetry_Int_Tables_number            1
loop_
_symmetry_equiv_pos_as_xyz
   'x, y, z'
                         
loop_
_atom_site_label
_atom_site_type_symbol
_atom_site_fract_x 
_atom_site_fract_y
_atom_site_fract_z
_atom_site_charge
C C 0.5179223469548546 0.7147885367358098 0.17394203365946254 0.0
C C 0.5092536207134729 0.7258149147281219 0.14885295149038574 0.0
C C 0.4387131965286782 0.3214683464058778 0.2002860670114202 0.0
C C 0.4796282871379709 0.20395886813861328 0.27289980892061916 0.0
C C 0.32139791545192553 0.5203982611855471 0.23662810075933507 0.0
C C 0.22080385224447774 0.5486288514683086 0.15575334943366226 0.0
C C 0.7328333778760702 0.4739906902294715 0.18978921131493806 0.0
C C 0.8046651030020835 0.46155778449458906 0.08432220746232089 0.0
C C 0.42793312410917606 0.6773894848580917 0.8648438009014268 0.0
C C 0.4246529390318636 0.8342559647058481 0.858109771674487 0.0
C C 0.5693363480806971 0.28688485158949223 0.8332212241937746 0.0
C C 0.48946473343737346 0.20035705083460242 0.8785370094109947 0.0
C C 0.7311728664765408 0.5709297961806872 0.9123818082094756 0.0
C C 0.8245552590244029 0.57872979668514 0.8932032824641916 0.0
C C 0.3116011798880845 0.419323435279559 0.855092422625605 0.0
C C 0.2644889655827647 0.4554639247521991 0.8256226715450338 0.0
C C 0.4640672086988986 0.16833610992030962 -0.10962211955784415 0.0
C C 0.45079620537034687 0.055799799116025096 0.006741856030695151 0.0
C C 0.45983120482631773 0.8459588447507337 0.01750825088030138 0.0
C C 0.5040670697424906 0.9172499052277077 0.03797199844894179 0.0
C C 0.8559238151042496 0.5422871660869314 -0.01989476201847559 0.0
C C 0.9468917910914166 0.6301987672215632 -0.06269859764914815 0.0
C C 0.1618873764585622 0.4781702421811063 0.0604337262422082 0.0
C C -0.01950009011469549 0.5330888638922849 -0.08801718085317328 0.0
H H 0.5414503469548546 0.6715785367358098 0.2819050336594625 0.0
H H 0.5350436207134729 0.7636549147281219 0.26075095149038574 0.0
H H 0.4151851965286782 0.3646783464058778 0.30824906701142013 0.0
H H 0.45383828713797086 0.16611986813861326 0.3847978089206191 0.0
H H 0.3646079154519256 0.5439262611855471 0.344591100759335 0.0
H H 0.18296485224447775 0.5744188514683086 0.26765134943366226 0.0
H H 0.6896233778760702 0.4504626902294715 0.297752211314938 0.0
H H 0.8425051030020835 0.435767784494589 0.19622020746232086 0.0
H H 0.4044051241091761 0.6341794848580917 0.7568808009014267 0.0
H H 0.3988629390318636 0.872095964705848 0.7462117716744869 0.0
H H 0.5928643480806971 0.3300948515894923 0.7252582241937745 0.0
H H 0.5152547334373735 0.1625180508346024 0.7666390094109946 0.0
H H 0.6879628664765408 0.5944577961806872 0.8044188082094754 0.0
H H 0.8623952590244028 0.60451979668514 0.7813052824641915 0.0
H H 0.3548111798880846 0.3957954352795591 0.747129422625605 0.0
H H 0.22664996558276473 0.4296739247521991 0.7137246715450337 0.0
Cu Cu 0.4853865590335151 0.5000588846925627 0.028858396864621303 0.0
Si Si 0.47179480198455914 0.5341450470144183 0.5366144300327979 0.0
F F 0.5373704623047422 0.5297244372722797 0.7670302587712489 0.0
F F 0.47521265547443275 0.5020102394576137 0.23434321223375384 0.0
F F 0.5621869606024497 0.5492259640166911 0.3886634414691219 0.0
F F 0.3990694200543377 0.5907613464675595 0.5230605552417285 0.0
F F 0.4850925510149521 0.4073414973984811 0.5276886340238012 0.0
F F 0.5773069050336079 0.41063000251785164 0.4789375172923673 0.0
N N 0.47054211435313625 0.38602601640320583 -0.025552839112053596 0.0
N N 0.5279422092156805 0.644251889281491 0.02766605342976104 0.0
N N 0.64850094091481 0.5196427973897062 0.017138162762373864 0.0
N N 0.39007490684507456 0.5123609189396265 -0.046007400959064366 0.0
_cell_length_a 13.6316
_cell_length_b 13.6316
_cell_length_c 7.968
_cell_angle_alpha 90.0
_cell_angle_beta 90.0
_cell_angle_gamma 90.0
_symmetry_space_group_name_H-M         'P 1'
_symmetry_Int_Tables_number            1
loop_
_symmetry_equiv_pos_as_xyz
   'x, y, z'
                         
loop_
_atom_site_label
_atom_site_type_symbol
_atom_site_fract_x 
_atom_site_fract_y
_atom_site_fract_z
_atom_site_charge
C C 0.5213635433244106 0.6623159733810683 -0.014111128699047121 0.0
C C 0.5362884522232125 0.8790906974367253 0.17206306465656152 0.0
C C 0.46433882501477375 0.2618246457153689 0.1394178169054693 0.0
C C 0.44561013289655366 0.20084323694268374 0.18760764031678512 0.0
C C 0.3222393741536305 0.5754095820747419 0.13128035891941328 0.0
C C 0.19192509704222965 0.5226623339473494 0.14762530695272283 0.0
C C 0.6725966114047318 0.4947926611290636 0.1526308504811309 0.0
C C 0.8127342605794252 0.44524435922416444 0.14076725445543084 0.0
C C 0.4468437259324047 0.7419145457604303 0.922019363465705 0.0
C C 0.5195022103229394 0.7797674028014533 0.9367319793751253 0.0
C C 0.5127379113063579 0.3309463085261456 0.8561947629722452 0.0
C C 0.565396424483852 0.20225328944191992 0.8926171806177601 0.0
C C 0.6821773992169535 0.5548916871136004 0.8377965661146541 0.0
C C 0.8242743052727991 0.5683406889260045 0.8093199679511707 0.0
C C 0.3067547389606925 0.46325589935880757 0.8723689063045758 0.0
C C 0.19000071927780365 0.5220176469917367 0.8677053631921031 0.0
C C 0.5035912942348084 0.15426102444861345 0.0018906456506087473 0.0
C C 0.4988728352836898 0.034345343288880135 0.10108545568167011 0.0
C C 0.5156823396244248 0.8721085529904012 0.032321017738469286 0.0
C C 0.5242322764770204 0.9360697195626423 0.08882988925062069 0.0
C C 0.8797030762930904 0.4432674460896872 0.030561431597127372 0.0
C C 0.9880091448204501 0.4897365536557744 0.009419601047626684 0.0
C C 0.08771117136498337 0.48341795118472786 0.038472866021334894 0.0
C C 0.05856258218820819 0.4718820922704569 0.1002661239316808 0.0
H H 0.5448915433244106 0.6191059733810684 0.09385187130095285 0.0
H H 0.5620784522232123 0.9169306974367253 0.2839610646565615 0.0
H H 0.44081082501477376 0.3050346457153689 0.2473808169054693 0.0
H H 0.4198201328965536 0.16300423694268373 0.2995056403167851 0.0
H H 0.3654493741536306 0.5989375820747418 0.23924335891941326 0.0
H H 0.15408609704222967 0.5484523339473494 0.2595233069527228 0.0
H H 0.6293866114047318 0.4712646611290636 0.2605938504811309 0.0
H H 0.8505742605794252 0.4194543592241644 0.2526652544554308 0.0
H H 0.4233157259324047 0.6987045457604304 0.8140563634657049 0.0
H H 0.49371221032293927 0.8176074028014533 0.8248339793751253 0.0
H H 0.5362659113063579 0.3741563085261457 0.7482317629722451 0.0
H H 0.591186424483852 0.16441428944191994 0.7807191806177599 0.0
H H 0.6389673992169536 0.5784196871136004 0.7298335661146541 0.0
H H 0.8621143052727991 0.5941306889260045 0.6974219679511705 0.0
H H 0.3499647389606926 0.43972789935880763 0.7644059063045756 0.0
H H 0.15216171927780364 0.49622764699173666 0.7558073631921031 0.0
Cu Cu 0.48021282152918926 0.47440573297757926 -0.061239901760593386 0.0
Si Si 0.4949759094153765 0.48097597913399254 0.47642803847739557 0.0
F F 0.49597636911995113 0.5223334990970522 0.688176399301379 0.0
F F 0.5337153044372526 0.4754175043514598 0.2991735608617966 0.0
F F 0.5365021225533511 0.6260068516781488 0.41841422851637783 0.0
F F 0.36130321434839274 0.5804387863891042 0.49044590259533716 0.0
F F 0.38589087663773963 0.4321980551750831 0.5894987160811622 0.0
F F 0.5386297251441919 0.404487922387099 0.44373369330203155 0.0
N N 0.5314348564760307 0.353946264476209 0.0067972864607198395 0.0
N N 0.4501219516098823 0.6511046218486206 0.013321556669263582 0.0
N N 0.6490862238509812 0.5304408794043322 -0.013948986954024547 0.0
N N 0.35286260632423105 0.48187759159342797 0.013184006628396482 0.0
_cell_length_a 13.6316
_cell_length_b 13.6316
_cell_length_c 7.968
_cell_angle_alpha 90.0
_cell_angle_beta 90.0
_cell_angle_gamma 90.0
_symmetry_space_group_name_H-M         'P 1'
_symmetry_Int_Tables_number            1
loop_
_symmetry_equiv_pos_as_xyz
   'x, y, z'
                         
loop_
_atom_site_label
_atom_site_type_symbol
_atom_site_fract_x 
_atom_site_fract_y
_atom_site_fract_z
_atom_site_charge
C C 0.5229581414711834 0.7208924022202786 0.11477911120568156 0.0
C C 0.5324662788460145 0.7860867084611042 0.14567180070243677 0.0
C C 0.5121952549879112 0.2829222060908174 0.13050182365818877 0.0
C C 0.4912092806807196 0.16897317183526406 0.1311667619362839 0.0
C C 0.2884235410972829 0.5314195827615975 0.15480205522632587 0.0
C C 0.19596128918507094 0.5504847887447525 0.11550289741469742 0.0
C C 0.6918297516655525 0.47154512726140385 0.17641043384977248 0.0
C C 0.8052249717990055 0.4417289193200068 0.11078165832423043 0.0
C C 0.44352804911505833 0.6926352493178068 0.9285405447673579 0.0
C C 0.4463392372546374 0.8804801482585237 0.7452415627057868 0.0
C C 0.5017772820415861 0.31956945575324025 0.8863931369311844 0.0
C C 0.536064548007762 0.222965544926826 0.8108792837793887 0.0
C C 0.7672235396886612 0.5386826849737834 0.876354612773844 0.0
C C 0.8005530353311486 0.5599030604065827 0.9740429286693297 0.0
C C 0.29421388441374063 0.4829280064472796 0.8794793873394101 0.0
C C 0.2685242756079602 0.4628480767650924 0.746834544229169 0.0
C C 0.46661293915757573 0.12293779105813472 0.002347559497562851 0.0
C C 0.4948690844471809 0.011978788959967486 0.02240460429123623 0.0
C C 0.467106916351996 0.8628319407053224 -0.09049504692584145 0.0
C C 0.5091764634576921 0.9794315833973316 -0.061014170595377885 0.0
C C 0.8419918892088307 0.5277937322689894 0.01172920836900096 0.0
C C 0.9555327999406651 0.5254370178469636 0.02559014640623007 0.0
C C 0.16032506847008277 0.4965612646423282 0.0049679945939469635 0.0
C C 0.019906712183406 0.525650727431931 -0.002150882087296923 0.0
H H 0.5464861414711834 0.6776824022202786 0.22274211120568152 0.0
H H 0.5582562788460145 0.8239267084611042 0.25756980070243674 0.0
H H 0.4886672549879112 0.32613220609081744 0.23846482365818875 0.0
H H 0.4654192806807196 0.13113417183526405 0.24306476193628387 0.0
H H 0.33163354109728294 0.5549475827615975 0.26276505522632587 0.0
H H 0.15812228918507096 0.5762747887447525 0.2274008974146974 0.0
H H 0.6486197516655525 0.44801712726140386 0.2843734338497725 0.0
H H 0.8430649717990055 0.41593891932000676 0.2226796583242304 0.0
H H 0.42000004911505834 0.6494252493178069 0.8205775447673578 0.0
H H 0.4205492372546374 0.9183201482585238 0.6333435627057867 0.0
H H 0.5253052820415861 0.3627794557532403 0.7784301369311842 0.0
H H 0.561854548007762 0.185126544926826 0.6989812837793886 0.0
H H 0.7240135396886612 0.5622106849737833 0.7683916127738439 0.0
H H 0.8383930353311486 0.5856930604065825 0.8621449286693297 0.0
H H 0.33742388441374066 0.4594000064472797 0.77151638733941 0.0
H H 0.2306852756079602 0.43705807676509234 0.6349365442291688 0.0
Cu Cu 0.4855834741097189 0.47333555165881386 -0.024064160196662642 0.0
Si Si 0.4950616325955132 0.4884907999395245 0.537102006249384 0.0
F F 0.5227757260434364 0.5029040501564892 0.6973826367245278 0.0
F F 0.48458447982605424 0.4732030813509311 0.31915859439813654 0.0
F F 0.6298675986251595 0.6009465763209331 0.5160321071772174 0.0
F F 0.41385055140415467 0.5648594772273672 0.4903311476564658 0.0
F F 0.38021272547214663 0.3806755781807435 0.4963557810762946 0.0
F F 0.5588569862531559 0.4236688040580883 0.5314551153251645 0.0
N N 0.46501834465749825 0.35793634861530826 0.03244198195249304 0.0
N N 0.5077822687142116 0.6039851004880646 -0.028658146008142135 0.0
N N 0.6634053344486437 0.5422514965211999 0.0441142530481705 0.0
N N 0.3542442952235856 0.5105241723698883 0.03628702996027614 0.0
_cell_length_a 13.6316
_cell_length_b 13.6316
_cell_length_c 7.968
_cell_angle_alpha 90.0
_cell_angle_beta 90.0
_cell_angle_gamma 90.0
_symmetry_space_group_name_H-M         'P 1'
_symmetry_Int_Tables_number            1
loop_
_symmetry_equiv_pos_as_xyz
   'x, y, z'
                         
loop_
_atom_site_label
_atom_site_type_symbol
_atom_site_fract_x 
_atom_site_fract_y
_atom_site_fract_z
_atom_site_charge
C C 0.5007009856493763 0.6508251771435632 0.06959903670296509 0.0
C C 0.5407737870557133 0.8370504174082183 0.13364360616244206 0.0
C C 0.46798301145443805 0.3435326551360729 0.18932431887362913 0.0
C C 0.5189352170618834 0.20747543101207416 0.20868613520624713 0.0
C C 0.3126971240738803 0.5372602254689625 0.0581424031237922 0.0
C C 0.2013024098613933 0.5673890758806833 0.16477661416467976 0.0
C C 0.6794959655348661 0.42354481319356113 0.10977444963415135 0.0
C C 0.842636303505639 0.49907569573488864 0.13616794643258745 0.0
C C 0.4769385639508107 0.6777964411627021 0.9069087127561868 0.0
C C 0.5085866979623123 0.7714280301637982 0.8490280059786066 0.0
C C 0.46050863505094897 0.2669289698727216 0.8474227615564822 0.0
C C 0.5389730773731145 0.18356183267033263 0.7957142682815336 0.0
C C 0.7207801433480856 0.4848647630158117 0.870194978459931 0.0
C C 0.8160057051501497 0.5014586056927086 0.8319245988720064 0.0
C C 0.2846925941943748 0.4904863840090194 0.7826508293134704 0.0
C C 0.220794678653387 0.4982439070413124 0.9401187465880136 0.0
C C 0.481038309864955 0.1461261783631218 0.013158796270221035 0.0
C C 0.4537733576160546 0.05336308615191081 0.08324290210102978 0.0
C C 0.4830207603626418 0.7677404756435191 -0.04101797329055695 0.0
C C 0.46554511693587797 0.9872675864546009 0.014966681603190621 0.0
C C 0.8664035967351861 0.5156795830349714 0.03136831848607378 0.0
C C 0.94854336501599 0.49692965537098177 -0.07756005955140235 0.0
C C 0.13995124626175096 0.5264434716757598 0.01658227870876092 0.0
C C 0.04855318123723292 0.49393152268455026 -0.0670250210646522 0.0
H H 0.5242289856493763 0.6076151771435633 0.17756203670296505 0.0
H H 0.5665637870557133 0.8748904174082183 0.24554160616244206 0.0
H H 0.44445501145443805 0.3867426551360729 0.2972873188736291 0.0
H H 0.49314521706188336 0.16963643101207418 0.3205841352062471 0.0
H H 0.35590712407388037 0.5607882254689625 0.16610540312379216 0.0
H H 0.16346340986139332 0.5931790758806833 0.2766746141646797 0.0
H H 0.6362859655348662 0.40001681319356114 0.21773744963415131 0.0
H H 0.880476303505639 0.4732856957348886 0.24806594643258742 0.0
H H 0.4534105639508107 0.6345864411627021 0.7989457127561866 0.0
H H 0.48279669796231217 0.809268030163798 0.7371300059786066 0.0
H H 0.484036635050949 0.31013896987272166 0.7394597615564821 0.0
H H 0.5647630773731145 0.14572283267033262 0.6838162682815335 0.0
H H 0.6775701433480856 0.5083927630158118 0.762231978459931 0.0
H H 0.8538457051501497 0.5272486056927086 0.7200265988720064 0.0
H H 0.3279025941943749 0.46695838400901946 0.6746878293134704 0.0
H H 0.18295567865338702 0.47245390704131235 0.8282207465880136 0.0
Cu Cu 0.469640669833307 0.5453538779670232 -0.059427151271995736 0.0
Si Si 0.49557791029524195 0.4763604900805581 0.5379743084785678 0.0
F F 0.5097712141340208 0.4723052570640151 0.7214161006361364 0.0
F F 0.48080973488408973 0.47235979483906104 0.30143532032789355 0.0
F F 0.585241103070632 0.6306046933861629 0.49369033623893144 0.0
F F 0.4465795603636737 0.6044764989310908 0.4382631913697043 0.0
F F 0.38886084032850704 0.39933826439966347 0.5024988769957842 0.0
F F 0.5674526718759041 0.41287679082482953 0.5823527636388688 0.0
N N 0.5125349391789089 0.35702424459373283 -0.0005773658074877959 0.0
N N 0.49570586201197775 0.6789480196589184 0.07188053378398572 0.0
N N 0.6590683266917309 0.5141853782871338 0.015012777611700244 0.0
N N 0.3888677167414006 0.4764992691271152 0.07675308563022798 0.0
_cell_length_a 13.6316
_cell_length_b 13.6316
_cell_length_c 7.968
_cell_angle_alpha 90.0
_cell_angle_beta 90.0
_cell_angle_gamma 90.0
_symmetry_space_group_name_H-M         'P 1'
_symmetry_Int_Tables_number            1
loop_
_symmetry_equiv_pos_as_xyz
   'x, y, z'
                         
loop_
_atom_site_label
_atom_site_type_symbol
_atom_site_fract_x 
_atom_site_fract_y
_atom_site_fract_z
_atom_site_charge
C C 0.5391038929761678 0.679790481324333 0.1538701604896232 0.0
C C 0.5376439086457881 0.880989559918411 0.058197698614037834 0.0
C C 0.5215231076235874 0.25848150595231395 0.21866430419622607 0.0
C C 0.4564143384417628 0.19951015341576514 0.078732358442359 0.0
C C 0.29505544210894197 0.45978912326514476 0.13864472241731557 0.0
C C 0.1969644445263179 0.6136294482695455 0.10694699009627463 0.0
C C 0.7119738588132091 0.4530962060735199 0.1749586733251631 0.0
C C 0.7799620988100445 0.4962313928367591 0.2053463504745399 0.0
C C 0.502440059607942 0.6995273772967638 0.7939625260222879 0.0
C C 0.49511520118255653 0.7640724375745385 0.9017225056407913 0.0
C C 0.5348323115021157 0.33514921627847305 0.8131886516383215 0.0
C C 0.5618012397870551 0.12983484685864735 0.8543029269495201 0.0
C C 0.739584795556767 0.5038954549067297 0.7859750091827776 0.0
C C 0.805538624999641 0.544369405511792 0.8408591425537841 0.0
C C 0.31550880599901165 0.4584525324767897 0.7918312024093137 0.0
C C 0.19219591260523927 0.4551021774578533 0.8777726646803087 0.0
C C 0.5369095699133398 0.15460632490211434 0.050279518820145454 0.0
C C 0.505399715444184 0.09533930590147494 -0.057488464191173094 0.0
C C 0.5072358823982077 0.8684634615698328 0.02856535964532664 0.0
C C 0.5093967108499986 1.0024712646713378 -0.022656257050219064 0.0
C C 0.8538894515332374 0.5095500540972386 0.009643447499706177 0.0
C C 1.0199494565271081 0.5229422339599452 0.09551502766313757 0.0
C C 0.137049375028067 0.5191269497283474 -0.09344572985733401 0.0
C C 0.03481403295194052 0.5201803792717007 0.024397633797785097 0.0
H H 0.5626318929761678 0.636580481324333 0.2618331604896232 0.0
H H 0.563433908645788 0.9188295599184109 0.17009569861403778 0.0
H H 0.4979951076235874 0.301691505952314 0.32662730419622604 0.0
H H 0.4306243384417628 0.16167115341576513 0.19063035844235898 0.0
H H 0.33826544210894205 0.48331712326514475 0.24660772241731552 0.0
H H 0.1591254445263179 0.6394194482695454 0.21884499009627462 0.0
H H 0.6687638588132091 0.4295682060735199 0.28292167332516305 0.0
H H 0.8178020988100445 0.47044139283675906 0.31724435047453986 0.0
H H 0.478912059607942 0.6563173772967639 0.6859995260222879 0.0
H H 0.4693252011825565 0.8019124375745385 0.7898245056407912 0.0
H H 0.5583603115021157 0.37835921627847313 0.7052256516383215 0.0
H H 0.587591239787055 0.09199584685864735 0.7424049269495201 0.0
H H 0.6963747955567671 0.5274234549067297 0.6780120091827776 0.0
H H 0.843378624999641 0.570159405511792 0.7289611425537841 0.0
H H 0.3587188059990118 0.43492453247678975 0.6838682024093136 0.0
H H 0.1543569126052393 0.42931217745785333 0.7658746646803086 0.0
Cu Cu 0.5310560635632103 0.5163468245654949 0.060115024317084806 0.0
Si Si 0.5059632440553893 0.4979658727718294 0.5045531517843538 0.0
F F 0.497331933606969 0.4834076539547749 0.7266879435355199 0.0
F F 0.4789735145197353 0.4978461756129828 0.2781012538409211 0.0
F F 0.5985541253329943 0.5889463687685119 0.47396269237155314 0.0
F F 0.39815762045431907 0.5934264008400811 0.4795269794717914 0.0
F F 0.4240081391167036 0.39600884902634753 0.5553109606779633 0.0
F F 0.5848345216959631 0.36690136796928435 0.5028937926571547 0.0
N N 0.4959355550291511 0.3153290719358779 -0.04019205549927143 0.0
N N 0.5087199139068509 0.6263425099535846 0.002578263148688667 0.0
N N 0.6406917103245842 0.5076602381971963 0.009416704188919475 0.0
N N 0.3805146867642979 0.4917983014946275 -0.0379756986699174 0.0
_cell_length_a 13.6316
_cell_length_b 13.6316
_cell_length_c 7.968
_cell_angle_alpha 90.0
_cell_angle_beta 90.0
_cell_angle_gamma 90.0
_symmetry_space_group_name_H-M         'P 1'
_symmetry_Int_Tables_number            1
loop_
_symmetry_equiv_pos_as_xyz
   'x, y, z'
                         
loop_
_atom_site_label
_atom_site_type_symbol
_atom_site_fract_x 
_atom_site_fract_y
_atom_site_fract_z
_atom_site_charge
C C 0.5364586244907966 0.6648258591653641 0.1272472223333922 0.0
C C 0.5452985454566012 0.8324965394680194 0.16171145043407043 0.0
C C 0.49207428943344794 0.2939868753601442 0.18698124377881697 0.0
C C 0.41300657821612297 0.24798253692114056 0.21423088066880813 0.0
C C 0.3231293761792879 0.5336425571597521 0.07278849295473122 0.0
C C 0.2948180384628234 0.561603435626611 0.16501344029959034 0.0
C C 0.6506195770946156 0.5182303425210948 0.07719410771259959 0.0
C C 0.8151330335044842 0.4794679261328394 0.19699673096069106 0.0
C C 0.43172926709709447 0.7311443718240369 0.9227057599115819 0.0
C C 0.5031029606886877 0.7586465625656081 0.9227991672445583 0.0
C C 0.541137724041239 0.33471277314121967 0.9166167170013307 0.0
C C 0.5255671801717515 0.2046432193753873 0.9318975349323664 0.0
C C 0.7257481441108126 0.5342961928142246 0.8503339703866019 0.0
C C 0.850009506423362 0.5429155534980127 0.8758966576317356 0.0
C C 0.25581963161078414 0.45134728739634455 0.8960295631340651 0.0
C C 0.23415006849861048 0.5540551289783706 0.9075537884712792 0.0
C C 0.5709501874377881 0.17910389316858874 -0.005421929285620164 0.0
C C 0.48346898614283706 0.021097077791882104 0.012639668060320708 0.0
C C 0.47321795714493825 0.7973246503231755 -0.007075382521583256 0.0
C C 0.45148693568790754 0.9412539993942234 0.11356993638196919 0.0
C C 0.8957266765329358 0.5294598546896299 0.05866399099256399 0.0
C C 0.9555301509801744 0.546757442502511 0.03934972933299365 0.0
C C 0.15704169191227843 0.5058769424935701 0.053140333573808804 0.0
C C 0.10355747253419889 0.44542526125220583 0.03299146166239288 0.0
H H 0.5599866244907966 0.6216158591653641 0.23521022233339217 0.0
H H 0.5710885454566011 0.8703365394680194 0.2736094504340704 0.0
H H 0.468546289433448 0.3371968753601442 0.29494424377881695 0.0
H H 0.38721657821612293 0.21014353692114057 0.3261288806688081 0.0
H H 0.36633937617928797 0.5571705571597521 0.18075149295473117 0.0
H H 0.2569790384628234 0.5873934356266108 0.2769114402995903 0.0
H H 0.6074095770946156 0.49470234252109485 0.18515710771259955 0.0
H H 0.8529730335044842 0.45367792613283936 0.30889473096069103 0.0
H H 0.40820126709709453 0.6879343718240369 0.8147427599115817 0.0
H H 0.47731296068868756 0.7964865625656081 0.8109011672445583 0.0
H H 0.564665724041239 0.3779227731412197 0.8086537170013307 0.0
H H 0.5513571801717515 0.1668042193753873 0.8199995349323662 0.0
H H 0.6825381441108126 0.5578241928142246 0.7423709703866018 0.0
H H 0.887849506423362 0.5687055534980127 0.7639986576317356 0.0
H H 0.29902963161078416 0.42781928739634456 0.788066563134065 0.0
H H 0.1963110684986105 0.5282651289783705 0.7956557884712792 0.0
Cu Cu 0.5184216930775586 0.544244917592953 -0.07311066538259617 0.0
Si Si 0.4975713754191063 0.43998442017767725 0.6056375674179859 0.0
F F 0.5254539131278937 0.4992254040804895 0.7007050346972299 0.0
F F 0.5022618535273644 0.5050385334466253 0.30813586720322156 0.0
F F 0.5824266694153443 0.5796754695124646 0.475846728298214 0.0
F F 0.41211739948113446 0.5615771026378135 0.5465890851446471 0.0
F F 0.373433679971703 0.4426266845070214 0.53108266665279 0.0
F F 0.5680224175042158 0.4206833734796273 0.44652493927288284 0.0
N N 0.49123789064301776 0.38192512508422255 -0.042090996241961734 0.0
N N 0.5471152169792663 0.6558414710996652 -0.025593903006039562 0.0
N N 0.6317645112589985 0.5246463205012152 -0.005524168521882767 0.0
N N 0.3782778283400609 0.4985290100399764 -0.08601537421466203 0.0
