_cell_length_a 13.6316
_cell_length_b 13.6316
_cell_length_c 7.968
_cell_angle_alpha 90.0
_cell_angle_beta 90.0
_cell_angle_gamma 90.0
_symmetry_space_group_name_H-M         'P 1'
_symmetry_Int_Tables_number            1
loop_
_symmetry_equiv_pos_as_xyz
   'x, y, z'
                         
loop_
_atom_site_label
_atom_site_type_symbol
_atom_site_fract_x 
_atom_site_fract_y
_atom_site_fract_z
_atom_site_charge
C C 0.5498608831134146 0.7172409800560378 0.09664437931733919 0.0
C C 0.4938182110258461 0.7437806333651645 0.13908265088619076 0.0
C C 0.43475038222093787 0.2493207247665548 0.10296775892718021 0.0
C C 0.46626833627002956 0.20205738361250267 0.09684296220256165 0.0
C C 0.2814472171331968 0.5168611472899962 0.13463839573000283 0.0
C C 0.23647881290253875 0.54953346613597 0.04441114382606041 0.0
C C 0.6557800339925632 0.507254047922021 0.22123875897612538 0.0
C C 0.8335583240494279 0.48026712886815914 0.22797825518394604 0.0
C C 0.47190733291477105 0.6914921857986458 0.8945516201070677 0.0
C C 0.41716555338883965 0.8038052369948335 0.819879071447128 0.0
C C 0.50699238476253 0.31633872936506746 0.8857643623768635 0.0
C C 0.5150457843960393 0.2175365953712567 0.8978564785784882 0.0
C C 0.7569551241804009 0.524998774979661 0.8304103834885049 0.0
C C 0.7975495132632046 0.588742100386204 0.7861037536584418 0.0
C C 0.348643680884535 0.4490259329167756 0.8919647640774202 0.0
C C 0.24320721657327227 0.47918342971024724 0.8337763578245446 0.0
C C 0.4867702947743218 0.1717079428196736 0.02385535053487902 0.0
C C 0.5147433867920916 0.05700859586363365 -0.0229387117246869 0.0
C C 0.4883037953146545 0.8211846101244712 0.09779349804398893 0.0
C C 0.5054416777188996 0.9762500059849709 0.0501861485111634 0.0
C C 0.8607743317013594 0.5628387540127486 0.022030351072900637 0.0
C C 0.9270134777978555 0.47341308400997173 -0.06863784658049833 0.0
C C 0.16934021266882443 0.5456669743023421 -0.08270974105424292 0.0
C C 0.055784072864395476 0.5266804390247615 0.009643346588281842 0.0
H H 0.5733888831134146 0.6740309800560378 0.20460737931733916 0.0
H H 0.5196082110258461 0.7816206333651645 0.25098065088619076 0.0
H H 0.4112223822209379 0.29253072476655484 0.2109307589271802 0.0
H H 0.4404783362700295 0.16421838361250268 0.20874096220256164 0.0
H H 0.3246572171331969 0.5403891472899962 0.2426013957300028 0.0
H H 0.19863981290253874 0.57532346613597 0.1563091438260604 0.0
H H 0.6125700339925633 0.483726047922021 0.32920175897612536 0.0
H H 0.8713983240494279 0.4544771288681591 0.33987625518394604 0.0
H H 0.44837933291477106 0.6482821857986458 0.7865886201070676 0.0
H H 0.39137555338883967 0.8416452369948335 0.707981071447128 0.0
H H 0.5305203847625299 0.3595487293650675 0.7778013623768635 0.0
H H 0.5408357843960393 0.17969759537125668 0.785958478578488 0.0
H H 0.7137451241804009 0.548526774979661 0.7224473834885048 0.0
H H 0.8353895132632045 0.614532100386204 0.6742057536584417 0.0
H H 0.39185368088453504 0.4254979329167757 0.7840017640774201 0.0
H H 0.20536821657327228 0.45339342971024726 0.7218783578245446 0.0
Cu Cu 0.49530744698682205 0.45784369766888855 -0.07209740640045798 0.0
Si Si 0.5274240948726515 0.49055439028472264 0.48567270605692164 0.0
F F 0.4940851617355089 0.5135430953916786 0.6934570763648247 0.0
F F 0.5064282064963572 0.4768982342123156 0.33408179798897714 0.0
F F 0.5666639719020454 0.5732853312411307 0.4915589807476028 0.0
F F 0.40104452740213603 0.5831879278821661 0.5030611270939063 0.0
F F 0.4453444669103817 0.37027745584814686 0.5086040630798986 0.0
F F 0.5852509690603518 0.38410627682221615 0.5894215502338956 0.0
N N 0.5035050249192211 0.3574985733548595 0.020869473115949867 0.0
N N 0.4505674213207504 0.638640392105222 0.015366987818412349 0.0
N N 0.64223629157139 0.44070129030452954 0.013434445754077986 0.0
N N 0.3060323740514469 0.4618963578496377 -0.05555737899438046 0.0
_cell_length_a 13.6316
_cell_length_b 13.6316
_cell_length_c 7.968
_cell_angle_alpha 90.0
_cell_angle_beta 90.0
_cell_angle_gamma 90.0
_symmetry_space_group_name_H-M         'P 1'
_symmetry_Int_Tables_number            1
loop_
_symmetry_equiv_pos_as_xyz
   'x, y, z'
                         
loop_
_atom_site_label
_atom_site_type_symbol
_atom_site_fract_x 
_atom_site_fract_y
_atom_site_fract_z
_atom_site_charge
C C 0.5046891141233755 0.7781062548318581 0.18860962018992286 0.0
C C 0.5067000269697521 0.8713957061739975 0.1391998405287491 0.0
C C 0.4432308445637038 0.312020430237323 0.1532285750322724 0.0
C C 0.4095311330056795 0.3268659942608593 0.1695870731859163 0.0
C C 0.2747195281572166 0.5043438019025536 0.08240227526481753 0.0
C C 0.1827932136238699 0.5447616300784043 0.18415757088347298 0.0
C C 0.6680639789106089 0.48109338666525325 0.07388991779132419 0.0
C C 0.8383964153038023 0.4587478231993151 0.10679025064583977 0.0
C C 0.48033052159812206 0.6997226044383792 0.8357637309481812 0.0
C C 0.4831108834446985 0.807292615095665 0.8836756213686452 0.0
C C 0.4986071689833378 0.29662550412346317 0.8918956783458987 0.0
C C 0.47739870117063726 0.2336299980936501 0.8233999373141729 0.0
C C 0.7034573962344616 0.5440580136986062 0.8331414305874595 0.0
C C 0.8022348139770061 0.5280769218450704 0.7860949308711708 0.0
C C 0.31338401264666377 0.4656610272277136 0.8769152235880895 0.0
C C 0.1819695111564509 0.41138228961645856 1.0179837259654618 0.0
C C 0.5412733742336342 0.08728163750344706 0.007842002617209742 0.0
C C 0.5140327063938552 0.017973841982627133 -0.028386960338415083 0.0
C C 0.4860459995452888 0.8499305032743577 0.042416627810150334 0.0
C C 0.4955914983414965 0.9276448089748256 0.08399268831050911 0.0
C C 0.8504730329831435 0.5374554401277343 -0.04496481193009026 0.0
C C 0.9155493203302619 0.46789660403725336 0.018546399066668943 0.0
C C 0.11372098639437066 0.4850466424402317 0.036829862990521364 0.0
C C 0.051322440102965286 0.44703420520475967 -0.10165113383200838 0.0
H H 0.5282171141233755 0.7348962548318582 0.2965726201899228 0.0
H H 0.532490026969752 0.9092357061739975 0.25109784052874906 0.0
H H 0.4197028445637039 0.35523043023732304 0.2611915750322724 0.0
H H 0.38374113300567947 0.2890269942608593 0.28148507318591626 0.0
H H 0.3179295281572167 0.5278718019025536 0.1903652752648175 0.0
H H 0.14495421362386993 0.5705516300784043 0.296055570883473 0.0
H H 0.624853978910609 0.45756538666525326 0.18185291779132415 0.0
H H 0.8762364153038023 0.4329578231993151 0.21868825064583974 0.0
H H 0.4568025215981221 0.6565126044383792 0.7278007309481812 0.0
H H 0.4573208834446985 0.845132615095665 0.7717776213686451 0.0
H H 0.5221351689833378 0.3398355041234632 0.7839326783458985 0.0
H H 0.5031887011706373 0.1957909980936501 0.7115019373141729 0.0
H H 0.6602473962344616 0.5675860136986062 0.7251784305874595 0.0
H H 0.8400748139770061 0.5538669218450704 0.6741969308711707 0.0
H H 0.3565940126466639 0.44213302722771364 0.7689522235880895 0.0
H H 0.1441305111564509 0.38559228961645853 0.9060857259654618 0.0
Cu Cu 0.4819229394535698 0.5024090731409298 -0.03515756267045715 0.0
Si Si 0.5025371316690146 0.550061802192784 0.5434806566794178 0.0
F F 0.48808738692264786 0.4849164280327043 0.7410774726646031 0.0
F F 0.486246902568394 0.519897963378206 0.24541666770750928 0.0
F F 0.625340406684703 0.599744082728485 0.4632410273419905 0.0
F F 0.4289125939096925 0.6106711734516995 0.4879528303720123 0.0
F F 0.4531965722007502 0.38441508183360834 0.47974930762364415 0.0
F F 0.62691131007358 0.3700807933668751 0.4788932094996396 0.0
N N 0.5002557419901721 0.35327508319715545 0.01981810652506905 0.0
N N 0.49848606093178016 0.6587297167970159 0.04467497505689808 0.0
N N 0.6261413317991285 0.4594908648853321 -0.029997684177351092 0.0
N N 0.363501592045203 0.5070712754682104 -0.04769108938219527 0.0
_cell_length_a 13.6316
_cell_length_b 13.6316
_cell_length_c 7.968
_cell_angle_alpha 90.0
_cell_angle_beta 90.0
_cell_angle_gamma 90.0
_symmetry_space_group_name_H-M         'P 1'
_symmetry_Int_Tables_number            1
loop_
_symmetry_equiv_pos_as_xyz
   'x, y, z'
                         
loop_
_atom_site_label
_atom_site_type_symbol
_atom_site_fract_x 
_atom_site_fract_y
_atom_site_fract_z
_atom_site_charge
C C 0.5315919460412005 0.7244517453750959 0.17236697117100713 0.0
C C 0.5244419367587525 0.8155555436077853 0.07177867197210325 0.0
C C 0.4599064966009637 0.2947350612657414 0.16694306353595914 0.0
C C 0.4120446790304334 0.20192150379575868 0.2263296850186642 0.0
C C 0.362300390223573 0.5324596431407116 0.0851380186936957 0.0
C C 0.2396254774740247 0.5494975113607788 0.14186707899579626 0.0
C C 0.6692776735857554 0.4463930850043305 0.16454515836258585 0.0
C C 0.7439161615016224 0.4163921488395632 0.14429469966908795 0.0
C C 0.4777666138069305 0.6892938029144293 0.9329132284243401 0.0
C C 0.41809943221593543 0.8180801554116995 0.7984293063222951 0.0
C C 0.5577184578159116 0.3255583549424038 0.9078090433665292 0.0
C C 0.5493032709056951 0.19985316271215173 0.8508828019201167 0.0
C C 0.6703852090887363 0.5388399114599242 0.9096533576498781 0.0
C C 0.8218862811949958 0.48341880659807995 0.8855833513344299 0.0
C C 0.2956568217195796 0.48217150807451375 0.8289819431369803 0.0
C C 0.2156831748604785 0.44181311410245044 0.8747536862237448 0.0
C C 0.4518342727642053 0.16930762762366822 0.06818835318860975 0.0
C C 0.4438857522047756 0.04107529008247403 -0.04629403588892223 0.0
C C 0.5228373018222338 0.7850580753934774 0.11308491326031475 0.0
C C 0.5158875966477107 0.9448059561265341 0.020759272581059005 0.0
C C 0.8585462980643624 0.5273644101279966 -0.011245055536437065 0.0
C C 1.0093187098945113 0.5170583515688542 0.05171990864731678 0.0
C C 0.11580859688960639 0.5152039091543197 0.019628713780659217 0.0
C C 0.08194959567502381 0.5103234376557035 -0.0072092903171837135 0.0
H H 0.5551199460412005 0.681241745375096 0.2803299711710071 0.0
H H 0.5502319367587525 0.8533955436077852 0.18367667197210322 0.0
H H 0.4363784966009638 0.3379450612657414 0.2749060635359591 0.0
H H 0.38625467903043337 0.1640825037957587 0.3382276850186642 0.0
H H 0.4055103902235731 0.5559876431407116 0.19310101869369567 0.0
H H 0.20178647747402473 0.5752875113607788 0.25376507899579626 0.0
H H 0.6260676735857554 0.4228650850043305 0.2725081583625858 0.0
H H 0.7817561615016224 0.3906021488395632 0.2561926996690879 0.0
H H 0.45423861380693054 0.6460838029144294 0.8249502284243401 0.0
H H 0.39230943221593545 0.8559201554116995 0.686531306322295 0.0
H H 0.5812464578159116 0.36876835494240384 0.7998460433665291 0.0
H H 0.5750932709056951 0.16201416271215174 0.7389848019201166 0.0
H H 0.6271752090887365 0.5623679114599242 0.801690357649878 0.0
H H 0.8597262811949958 0.50920880659808 0.7736853513344298 0.0
H H 0.33886682171957966 0.4586435080745139 0.7210189431369802 0.0
H H 0.17784417486047852 0.41602311410245046 0.7628556862237448 0.0
Cu Cu 0.5174809145177238 0.4971498939685559 -0.009409612273376401 0.0
Si Si 0.5134483959736641 0.4832200748780956 0.533869363781021 0.0
F F 0.4910528067696929 0.488602277215718 0.7356317239508762 0.0
F F 0.4446357238486676 0.4942307043863809 0.25448406086256203 0.0
F F 0.5942168072116097 0.6153773395104764 0.5354668067328501 0.0
F F 0.44139766959323623 0.5923597806346813 0.4858817429220254 0.0
F F 0.4612831372640065 0.45785855215374693 0.5024434425260672 0.0
F F 0.5725325656812366 0.42072105079106303 0.4996098407426221 0.0
N N 0.5234863852466162 0.38456669875915794 0.06108403196978146 0.0
N N 0.5152565480102441 0.6381204315003273 0.07688530916281894 0.0
N N 0.6866760998758122 0.5191612901268664 0.04195808934626061 0.0
N N 0.39207177730116466 0.5157596592666505 -0.07416744964547252 0.0
_cell_length_a 13.6316
_cell_length_b 13.6316
_cell_length_c 7.968
_cell_angle_alpha 90.0
_cell_angle_beta 90.0
_cell_angle_gamma 90.0
_symmetry_space_group_name_H-M         'P 1'
_symmetry_Int_Tables_number            1
loop_
_symmetry_equiv_pos_as_xyz
   'x, y, z'
                         
loop_
_atom_site_label
_atom_site_type_symbol
_atom_site_fract_x 
_atom_site_fract_y
_atom_site_fract_z
_atom_site_charge
C C 0.5330697594534711 0.684613830413852 0.040117529377020594 0.0
C C 0.5148196177745588 0.7827484562985021 0.19398065851034788 0.0
C C 0.4274537425523741 0.23630528156255062 0.17780427921646413 0.0
C C 0.4774220037961525 0.19537374886848172 0.08123934808699884 0.0
C C 0.2578328720948003 0.515580560031462 0.2069243029186185 0.0
C C 0.22580244467904717 0.4957887283094052 0.040269197971817244 0.0
C C 0.690261650837085 0.42011336562108353 0.14565525304558963 0.0
C C 0.7694686405901088 0.4335328804341848 0.06433022693001979 0.0
C C 0.4521533123546322 0.7589830760792496 0.7942840483496351 0.0
C C 0.49042128225900117 0.8395608707209679 0.9141193266878438 0.0
C C 0.549378736181736 0.28652777730593126 0.8456042812804524 0.0
C C 0.5425792094816775 0.22514550783956744 0.8533791278057804 0.0
C C 0.6987155502316051 0.5876619254768001 0.9221405653145666 0.0
C C 0.8342113482911261 0.4934045967798789 0.8145188260689183 0.0
C C 0.2739842999391578 0.4835972423320731 0.8673773163970107 0.0
C C 0.21533567443891496 0.4561368862459879 0.80060622590586 0.0
C C 0.5191530437281987 0.2098509939523956 0.037836120402820035 0.0
C C 0.49524122775127305 0.0490826263537143 -0.07271413901434198 0.0
C C 0.43909686238549656 0.8582002785215954 -0.09098675878254837 0.0
C C 0.49539996298914574 1.0045503920520362 0.1044098411092671 0.0
C C 0.8699305717111383 0.5188016626267054 0.021039373819195725 0.0
C C 0.9259835894624822 0.5411484048798472 -0.030962795545089697 0.0
C C 0.1736770665163365 0.46621116852665784 -0.0018500881746414798 0.0
C C 0.05496535484529416 0.5013422686794501 0.04256722176841685 0.0
H H 0.5565977594534711 0.6414038304138521 0.14808052937702057 0.0
H H 0.5406096177745587 0.8205884562985021 0.30587865851034785 0.0
H H 0.4039257425523741 0.2795152815625506 0.2857672792164641 0.0
H H 0.4516320037961525 0.15753474886848173 0.1931373480869988 0.0
H H 0.30104287209480035 0.539108560031462 0.31488730291861844 0.0
H H 0.18796344467904716 0.5215787283094051 0.15216719797181724 0.0
H H 0.647051650837085 0.39658536562108354 0.2536182530455896 0.0
H H 0.8073086405901088 0.4077428804341848 0.17622822693001977 0.0
H H 0.42862531235463225 0.7157730760792497 0.686321048349635 0.0
H H 0.46463128225900113 0.8774008707209678 0.8022213266878437 0.0
H H 0.572906736181736 0.32973777730593135 0.7376412812804523 0.0
H H 0.5683692094816775 0.18730650783956745 0.7414811278057803 0.0
H H 0.6555055502316052 0.6111899254768001 0.8141775653145664 0.0
H H 0.8720513482911261 0.5191945967798789 0.7026208260689183 0.0
H H 0.3171942999391578 0.46006924233207314 0.7594143163970106 0.0
H H 0.17749667443891495 0.43034688624598794 0.6887082259058599 0.0
Cu Cu 0.5159744286260793 0.5312324469063984 0.0001105257460619414 0.0
Si Si 0.524474345032134 0.44679608118193015 0.5541519214968446 0.0
F F 0.4963712042398581 0.48268618255258966 0.7772361901567694 0.0
F F 0.5273893544795042 0.5312096353968845 0.31962615181823406 0.0
F F 0.6185698177178856 0.5931248446032792 0.5130835590505205 0.0
F F 0.43865130331129826 0.559002517193575 0.48892493752459165 0.0
F F 0.41717325396792565 0.4722776420796913 0.5555617485568879 0.0
F F 0.5905694185442684 0.39729099689182806 0.48526755171781405 0.0
N N 0.5006565910891074 0.33127883666548064 0.009781069519107767 0.0
N N 0.48986585961739304 0.6373859015379844 0.005094381450844105 0.0
N N 0.6720136085898287 0.5289917249605316 0.01402196936079515 0.0
N N 0.36760615565018545 0.53206606423535 -0.025987103253320334 0.0
_cell_length_a 13.6316
_cell_length_b 13.6316
_cell_length_c 7.968
_cell_angle_alpha 90.0
_cell_angle_beta 90.0
_cell_angle_gamma 90.0
_symmetry_space_group_name_H-M         'P 1'
_symmetry_Int_Tables_number            1
loop_
_symmetry_equiv_pos_as_xyz
   'x, y, z'
                         
loop_
_atom_site_label
_atom_site_type_symbol
_atom_site_fract_x 
_atom_site_fract_y
_atom_site_fract_z
_atom_site_charge
C C 0.6091500898548273 0.6588084796745932 0.12691628293844795 0.0
C C 0.5625684433237295 0.7988783895665299 0.1159884379726936 0.0
C C 0.5059831411461894 0.35207559278305023 0.08726152847824865 0.0
C C 0.455886261623648 0.19967392697168015 0.05239768586837815 0.0
C C 0.30784829039343614 0.5249336006775793 0.1203645767772976 0.0
C C 0.15400569647920612 0.5319272481728888 0.028265905585401208 0.0
C C 0.7104943277886052 0.476239032633846 0.14494273986788977 0.0
C C 0.7809865161294512 0.49705124012785934 0.08209682927998425 0.0
C C 0.5014264053172426 0.7211197962117714 0.8426024065262064 0.0
C C 0.44488905417284413 0.8337790815352626 0.8785047816113903 0.0
C C 0.5274025288574642 0.2871744168102415 0.8291868000815995 0.0
C C 0.5057329223928362 0.23083230927201323 0.885357616750766 0.0
C C 0.6743129679819501 0.48965618427389246 0.8740273366681651 0.0
C C 0.7571301439345266 0.5431805144274434 0.9020801653290647 0.0
C C 0.33195339254378453 0.47774841531063184 0.9002998656356445 0.0
C C 0.14144236369598084 0.5316572731389179 0.767755308892914 0.0
C C 0.4409316218473561 0.15891772386022304 -0.06271106905847672 0.0
C C 0.4544316025372644 0.059676770886558234 -0.0449549227046717 0.0
C C 0.507448988230362 0.8393915841654627 0.005999130085646136 0.0
C C 0.5148061574771984 0.943403458039927 -0.09332281834200028 0.0
C C 0.8612908406573749 0.5217222319099608 -0.04623286357254121 0.0
C C 0.8984285775733105 0.4768004102632947 0.007542198633330345 0.0
C C 0.13809278950835993 0.5228006260679751 0.06500834728001145 0.0
C C 0.0302473899665992 0.552544596515136 0.019647888506349392 0.0
H H 0.6326780898548274 0.6155984796745932 0.23487928293844793 0.0
H H 0.5883584433237294 0.8367183895665299 0.2278864379726936 0.0
H H 0.4824551411461894 0.39528559278305025 0.19522452847824862 0.0
H H 0.43009626162364795 0.16183492697168017 0.16429568586837812 0.0
H H 0.3510582903934362 0.5484616006775793 0.22832757677729756 0.0
H H 0.11616669647920612 0.5577172481728888 0.14016390558540118 0.0
H H 0.6672843277886052 0.452711032633846 0.2529057398678897 0.0
H H 0.8188265161294512 0.4712612401278593 0.19399482927998424 0.0
H H 0.47789840531724254 0.6779097962117714 0.7346394065262063 0.0
H H 0.41909905417284415 0.8716190815352626 0.7666067816113903 0.0
H H 0.5509305288574642 0.3303844168102415 0.7212238000815994 0.0
H H 0.5315229223928362 0.19299330927201322 0.7734596167507659 0.0
H H 0.6311029679819501 0.5131841842738925 0.7660643366681651 0.0
H H 0.7949701439345266 0.5689705144274434 0.7901821653290646 0.0
H H 0.37516339254378445 0.45422041531063184 0.7923368656356443 0.0
H H 0.10360336369598085 0.5058672731389178 0.6558573088929139 0.0
Cu Cu 0.45803987872358315 0.4947329247857839 -0.07469228961675783 0.0
Si Si 0.49589862860698625 0.47921461058361164 0.4854260120138614 0.0
F F 0.5495614716626309 0.49452739741280916 0.7352631028231387 0.0
F F 0.5379907022066354 0.5292010484662949 0.3189352757059671 0.0
F F 0.5484350030792968 0.592184049609375 0.5108340167947671 0.0
F F 0.4023351914595421 0.5717420136788663 0.462803437364866 0.0
F F 0.3941489334961584 0.357506832517306 0.4699561021453378 0.0
F F 0.5921074752398349 0.41112124567353037 0.5095698800693527 0.0
N N 0.5497966723979054 0.3275792309042017 -0.043247467571787684 0.0
N N 0.5111068961432993 0.6564945116938763 -0.03095870687681147 0.0
N N 0.6038899176182918 0.4626899732682228 0.04043251532857697 0.0
N N 0.3661833278900046 0.5306655260537133 -0.043402816244305226 0.0
_cell_length_a 13.6316
_cell_length_b 13.6316
_cell_length_c 7.968
_cell_angle_alpha 90.0
_cell_angle_beta 90.0
_cell_angle_gamma 90.0
_symmetry_space_group_name_H-M         'P 1'
_symmetry_Int_Tables_number            1
loop_
_symmetry_equiv_pos_as_xyz
   'x, y, z'
                         
loop_
_atom_site_label
_atom_site_type_symbol
_atom_site_fract_x 
_atom_site_fract_y
_atom_site_fract_z
_atom_site_charge
C C 0.546743649706305 0.652213244627597 0.12006353233246807 0.0
C C 0.5308034752243819 0.7511040567694406 0.11549322814271991 0.0
C C 0.4880897497891339 0.28790254367703705 0.1294425815103841 0.0
C C 0.44786617403684875 0.18546158704855514 0.12267131066202065 0.0
C C 0.2680805362167869 0.5128249153167344 0.1451448933944696 0.0
C C 0.22005020088506516 0.5263373016417451 0.11824701162132058 0.0
C C 0.7269808237833769 0.48069999923437223 0.18851117065099626 0.0
C C 0.8191231161339407 0.45581750521468156 0.09297457513976136 0.0
C C 0.4687867951779383 0.7135719243175195 0.8326570150949407 0.0
C C 0.47561349112194196 0.7336823774952459 0.8980729264647375 0.0
C C 0.5257101498336362 0.3356995948846556 0.8714815485319927 0.0
C C 0.5332888023915014 0.1641598180737046 0.8350531634719469 0.0
C C 0.7188845824971173 0.49470583548218566 0.8676720833354854 0.0
C C 0.812042975778974 0.4596295247082024 0.8582824958236551 0.0
C C 0.3037518401914534 0.5204941921764376 0.8019796088384318 0.0
C C 0.17836948234344346 0.5415219206326799 0.8850519411478706 0.0
C C 0.5309969187619027 0.12251855671085186 -0.10362380468292823 0.0
C C 0.5136008213318375 0.0784643886126859 -0.07127921454691262 0.0
C C 0.49777566671725015 0.8597918544648449 -0.04940742697149617 0.0
C C 0.5408810392613166 0.9147065045148086 -0.09268581686440744 0.0
C C 0.919547053672122 0.5254315836303172 -0.010080344640443767 0.0
C C 1.0036863081938592 0.5151824944488484 0.0883557414429967 0.0
C C 0.18334835336837407 0.5251857186200782 0.021668191647401615 0.0
C C 0.05248817105014152 0.4939759933379861 9.17496550357654e-05 0.0
H H 0.570271649706305 0.609003244627597 0.22802653233246803 0.0
H H 0.5565934752243819 0.7889440567694407 0.2273912281427199 0.0
H H 0.4645617497891339 0.331112543677037 0.23740558151038404 0.0
H H 0.4220761740368487 0.14762258704855516 0.2345693106620206 0.0
H H 0.311290536216787 0.5363529153167343 0.2531078933944696 0.0
H H 0.18221120088506518 0.5521273016417451 0.23014501162132056 0.0
H H 0.683770823783377 0.45717199923437224 0.29647417065099624 0.0
H H 0.8569631161339407 0.4300275052146815 0.20487257513976134 0.0
H H 0.44525879517793837 0.6703619243175195 0.7246940150949407 0.0
H H 0.4498234911219419 0.7715223774952459 0.7861749264647374 0.0
H H 0.5492381498336362 0.3789095948846557 0.7635185485319925 0.0
H H 0.5590788023915014 0.12632081807370463 0.7231551634719469 0.0
H H 0.6756745824971173 0.5182338354821857 0.7597090833354854 0.0
H H 0.8498829757789741 0.48541952470820243 0.7463844958236551 0.0
H H 0.3469618401914535 0.49696619217643756 0.6940166088384317 0.0
H H 0.14053048234344348 0.5157319206326798 0.7731539411478705 0.0
Cu Cu 0.5164701645324921 0.5228060080945738 0.0297403593184362 0.0
Si Si 0.49313852814761233 0.5014844058464933 0.4757185548837784 0.0
F F 0.5250321659100378 0.49833398526642625 0.7203398865814499 0.0
F F 0.5270312968462708 0.5022847465670002 0.3673841412836559 0.0
F F 0.5451622321998786 0.547613583001126 0.48492738400308727 0.0
F F 0.38887617400291064 0.5711412899965579 0.45320753312867207 0.0
F F 0.386467948356153 0.4479995183477365 0.44345043777752774 0.0
F F 0.6164001166612264 0.435798031002223 0.4597160306313384 0.0
N N 0.5238422584703567 0.33784398802002596 -0.026743542640778675 0.0
N N 0.4584086564737285 0.6877635118618906 0.054233269084394124 0.0
N N 0.6788388605517041 0.4954569166531756 -0.12160424538044103 0.0
N N 0.42395441880382156 0.5133907421269308 -0.0002817351442407426 0.0
_cell_length_a 13.6316
_cell_length_b 13.6316
_cell_length_c 7.968
_cell_angle_alpha 90.0
_cell_angle_beta 90.0
_cell_angle_gamma 90.0
_symmetry_space_group_name_H-M         'P 1'
_symmetry_Int_Tables_number            1
loop_
_symmetry_equiv_pos_as_xyz
   'x, y, z'
                         
loop_
_atom_site_label
_atom_site_type_symbol
_atom_site_fract_x 
_atom_site_fract_y
_atom_site_fract_z
_atom_site_charge
C C 0.4971005379559553 0.7158283491653246 0.19751751058603573 0.0
C C 0.5618264616424298 0.8377144128693613 0.24934906463585166 0.0
C C 0.49839350856451425 0.3305254128593009 0.16090372771828965 0.0
C C 0.4595735415820708 0.19734761611822363 0.14522565816486116 0.0
C C 0.2838494188813069 0.5164415598563065 0.20362699165233336 0.0
C C 0.23281099825603016 0.5503187345910656 0.0870022759600461 0.0
C C 0.6556337930509888 0.4313278312526153 0.13415041277736028 0.0
C C 0.787693224348009 0.5248067714139611 0.12949703784573813 0.0
C C 0.48044416765056974 0.6921203376771818 0.9514246448736663 0.0
C C 0.5004791342642582 0.7926511377130315 0.8714771810740164 0.0
C C 0.5639558810566938 0.2804396958682661 0.8302080867437669 0.0
C C 0.5810981254215221 0.21305922173924055 0.8635683618799811 0.0
C C 0.6780176726711619 0.5231827505609009 0.8480386986606043 0.0
C C 0.796190041756433 0.5371237791508314 0.9136242448799395 0.0
C C 0.3205792254068466 0.4987353765881851 0.8845662799911085 0.0
C C 0.21962042950218863 0.4643433678230189 0.7820499381067378 0.0
C C 0.4449198380857025 0.15934178072200236 -0.14399718520545868 0.0
C C 0.52752605116762 0.03625183576288983 -0.03662327220583237 0.0
C C 0.45589865831876775 0.8053030276775205 -0.009897214793914247 0.0
C C 0.4801700438917728 0.9766904907796815 0.022496422863264823 0.0
C C 0.8632250974521346 0.48051749006362654 0.00447264287269761 0.0
C C 0.9887262506577739 0.5026233485252984 -0.14241181236096487 0.0
C C 0.1784423051898154 0.5603722393461376 -0.057465528631942535 0.0
C C 0.02888859032622695 0.5025007148190732 0.08124277550744431 0.0
H H 0.5206285379559553 0.6726183491653246 0.3054805105860357 0.0
H H 0.5876164616424298 0.8755544128693613 0.36124706463585166 0.0
H H 0.47486550856451426 0.3737354128593009 0.2688667277182896 0.0
H H 0.4337835415820708 0.15950861611822365 0.25712365816486116 0.0
H H 0.32705941888130696 0.5399695598563065 0.3115899916523333 0.0
H H 0.19497199825603018 0.5761087345910656 0.19890027596004609 0.0
H H 0.6124237930509888 0.4077998312526153 0.24211341277736026 0.0
H H 0.825533224348009 0.4990167714139611 0.2413950378457381 0.0
H H 0.45691616765056975 0.6489103376771819 0.8434616448736661 0.0
H H 0.474689134264258 0.8304911377130315 0.7595791810740163 0.0
H H 0.5874838810566939 0.3236496958682662 0.7222450867437669 0.0
H H 0.6068881254215219 0.17522022173924057 0.751670361879981 0.0
H H 0.6348076726711619 0.5467107505609008 0.7400756986606042 0.0
H H 0.834030041756433 0.5629137791508314 0.8017262448799395 0.0
H H 0.3637892254068466 0.4752073765881851 0.7766032799911085 0.0
H H 0.18178142950218865 0.4385533678230189 0.6701519381067378 0.0
Cu Cu 0.5303556718134562 0.5053610514164962 -0.009624257105736847 0.0
Si Si 0.5185478698833953 0.48234296035965807 0.5235561494077836 0.0
F F 0.4974321172700235 0.5468075978218199 0.7162676083080178 0.0
F F 0.45091383583718064 0.4853430582178884 0.29382511279986984 0.0
F F 0.6300278014980137 0.6279867910615841 0.37513299504030606 0.0
F F 0.41526533304658597 0.56609026072938 0.5131764384490886 0.0
F F 0.3919176144243312 0.38930809569683006 0.5153694921563444 0.0
F F 0.5950856849845803 0.41955261952003237 0.51067697720531 0.0
N N 0.5198282713837973 0.36805814654633995 0.051782837685908786 0.0
N N 0.4837016069613481 0.6558951895895757 0.04013377334847521 0.0
N N 0.6324374027166871 0.5135188687527158 0.027438776871981017 0.0
N N 0.3445646880914029 0.516587619899441 -0.03360301729350694 0.0
