_cell_length_a 13.6316
_cell_length_b 13.6316
_cell_length_c 7.968
_cell_angle_alpha 90.0
_cell_angle_beta 90.0
_cell_angle_gamma 90.0
_symmetry_space_group_name_H-M         'P 1'
_symmetry_Int_Tables_number            1
loop_
_symmetry_equiv_pos_as_xyz
   'x, y, z'
                         
loop_
_atom_site_label
_atom_site_type_symbol
_atom_site_fract_x 
_atom_site_fract_y
_atom_site_fract_z
_atom_site_charge
C C 0.49453236675818807 0.6438056594099482 0.08397757236149361 0.0
C C 0.49193035201201907 0.802190416603142 0.2585111948090131 0.0
C C 0.44541801662025593 0.3495714699253574 0.09276534886762053 0.0
C C 0.5014172505637342 0.19003472360942397 0.008073098813422646 0.0
C C 0.30601905399497903 0.5104959491544253 0.14054743076824294 0.0
C C 0.23109407023864145 0.5336578899757715 0.09586419420231918 0.0
C C 0.6026221008922066 0.44932352244061313 0.13632130250468744 0.0
C C 0.7856291546382793 0.4486369666343968 0.12597359621330767 0.0
C C 0.4878079818161697 0.6982928059114205 0.8954836434690086 0.0
C C 0.4893393782871184 0.7732968148341057 0.9314038941942326 0.0
C C 0.532197204540268 0.2979148566563444 0.9028292296834235 0.0
C C 0.5064045427677928 0.2027574093403106 0.8455617610638971 0.0
C C 0.7079218444012609 0.5724822652875595 0.8435167044531938 0.0
C C 0.8031164777987956 0.5114516848522511 0.8433431703863352 0.0
C C 0.32280834282628695 0.4081382030819245 0.876171376726771 0.0
C C 0.16380266898710677 0.46679758621491646 0.7759355748056717 0.0
C C 0.5223407964345362 0.16606535904861403 -0.09318362634529935 0.0
C C 0.474904271161838 0.07025373409989565 -0.024069297293343377 0.0
C C 0.49476353400888406 0.8614836562764349 -0.10748268767932348 0.0
C C 0.5278031889311712 0.9715874029910138 0.018532290281077318 0.0
C C 0.8462537111012931 0.5107282206158301 -0.03577039375656851 0.0
C C 0.9982564866965766 0.4736236488174798 0.05950403554222546 0.0
C C 0.1298201808484064 0.5582502462275198 0.018617974147906925 0.0
C C 0.0886438869580305 0.5242141436713376 0.06625095260745939 0.0
H H 0.5180603667581881 0.6005956594099483 0.1919405723614936 0.0
H H 0.517720352012019 0.840030416603142 0.370409194809013 0.0
H H 0.42189001662025594 0.3927814699253575 0.20072834886762053 0.0
H H 0.4756272505637341 0.152195723609424 0.11997109881342262 0.0
H H 0.3492290539949791 0.5340239491544253 0.24851043076824292 0.0
H H 0.19325507023864147 0.5594478899757714 0.20776219420231914 0.0
H H 0.5594121008922067 0.42579552244061314 0.2442843025046874 0.0
H H 0.8234691546382793 0.42284696663439675 0.23787159621330764 0.0
H H 0.4642799818161697 0.6550828059114205 0.7875206434690084 0.0
H H 0.46354937828711834 0.8111368148341057 0.8195058941942326 0.0
H H 0.555725204540268 0.3411248566563444 0.7948662296834235 0.0
H H 0.5321945427677928 0.1649184093403106 0.7336637610638971 0.0
H H 0.664711844401261 0.5960102652875594 0.7355537044531937 0.0
H H 0.8409564777987956 0.5372416848522511 0.7314451703863352 0.0
H H 0.3660183428262871 0.38461020308192456 0.768208376726771 0.0
H H 0.12596366898710679 0.4410075862149165 0.6640375748056716 0.0
Cu Cu 0.495054847180168 0.4972506533967263 -0.030224706132155877 0.0
Si Si 0.5156908302173192 0.5056620382343837 0.5118533744207822 0.0
F F 0.54367209756445 0.48762170853519654 0.6803229402269773 0.0
F F 0.5222589558445229 0.46503824705070645 0.21904382340923118 0.0
F F 0.5938085250649259 0.6162349381781809 0.4689490204088526 0.0
F F 0.4155919429480657 0.5507539102478871 0.5005878092665585 0.0
F F 0.39266832751990377 0.3929210726710761 0.5080642418775698 0.0
F F 0.5867641047030464 0.4136236567532101 0.5105721202530112 0.0
N N 0.49265491163010916 0.37594612173813347 -0.002595166818334703 0.0
N N 0.4983154771709471 0.6186104996502221 0.01920297752361231 0.0
N N 0.67213443124105 0.5287946865416371 -0.000977905163139342 0.0
N N 0.33841002244894686 0.46984919659403784 0.02633624966789778 0.0
_cell_length_a 13.6316
_cell_length_b 13.6316
_cell_length_c 7.968
_cell_angle_alpha 90.0
_cell_angle_beta 90.0
_cell_angle_gamma 90.0
_symmetry_space_group_name_H-M         'P 1'
_symmetry_Int_Tables_number            1
loop_
_symmetry_equiv_pos_as_xyz
   'x, y, z'
                         
loop_
_atom_site_label
_atom_site_type_symbol
_atom_site_fract_x 
_atom_site_fract_y
_atom_site_fract_z
_atom_site_charge
C C 0.5441460566386683 0.7103962202754912 0.1490197694011694 0.0
C C 0.5508276706459406 0.7506419657190713 0.21971474251032397 0.0
C C 0.46189118988571864 0.2991366110223142 0.12912080281451488 0.0
C C 0.47884627042619843 0.23571182115423106 0.09925698435589422 0.0
C C 0.2378242100569098 0.4980535700208944 0.12154309824291158 0.0
C C 0.19626134996541741 0.5215692411801198 0.12327542159899535 0.0
C C 0.68761761862756 0.4685880778670852 0.08065204119686954 0.0
C C 0.7860719961169754 0.48923456179872127 0.19478250497525076 0.0
C C 0.4345343134443533 0.6257093956663389 0.8278251910113431 0.0
C C 0.525191339708403 0.8048074765351261 0.882052344861948 0.0
C C 0.5099591148459797 0.3226913733090673 0.8668832101219006 0.0
C C 0.48657618958865556 0.23023066094766315 0.9389718730264721 0.0
C C 0.7660406050280689 0.5251702953611207 0.9102924192128647 0.0
C C 0.8650218719506498 0.46175148129567284 0.9011974323823854 0.0
C C 0.363453362280498 0.4343419839323827 0.8267190946639036 0.0
C C 0.17834400100585496 0.4812723226581909 0.894073831755155 0.0
C C 0.5297076273699545 0.2190839353431092 0.04805436708912383 0.0
C C 0.48589298508942785 0.032189241575157776 -0.030740700663069484 0.0
C C 0.47803109319702813 0.8622570162104254 -0.0208643673878071 0.0
C C 0.45965932914653945 1.0058371353040467 0.03727460693292774 0.0
C C 0.8037240729090234 0.5332445662993771 -0.01873057252515938 0.0
C C 0.9411480338454368 0.4834377819970489 -0.03288920289847145 0.0
C C 0.14005341303751143 0.5141707495728453 0.00582943731650791 0.0
C C 0.09235279562091252 0.5538080504108817 -0.055582227357962435 0.0
H H 0.5676740566386683 0.6671862202754912 0.2569827694011694 0.0
H H 0.5766176706459406 0.7884819657190713 0.3316127425103239 0.0
H H 0.43836318988571865 0.34234661102231423 0.23708380281451483 0.0
H H 0.4530562704261984 0.19787282115423105 0.2111549843558942 0.0
H H 0.2810342100569098 0.5215815700208943 0.22950609824291154 0.0
H H 0.15842234996541743 0.5473592411801198 0.23517342159899532 0.0
H H 0.64440761862756 0.4450600778670852 0.1886150411968695 0.0
H H 0.8239119961169754 0.46344456179872123 0.30668050497525073 0.0
H H 0.41100631344435334 0.5824993956663389 0.7198621910113431 0.0
H H 0.499401339708403 0.8426474765351261 0.7701543448619479 0.0
H H 0.5334871148459797 0.36590137330906736 0.7589202101219006 0.0
H H 0.5123661895886555 0.19239166094766316 0.8270738730264721 0.0
H H 0.722830605028069 0.5486982953611207 0.8023294192128647 0.0
H H 0.9028618719506498 0.4875414812956729 0.7892994323823853 0.0
H H 0.4066633622804981 0.4108139839323828 0.7187560946639034 0.0
H H 0.14050500100585495 0.4554823226581909 0.7821758317551549 0.0
Cu Cu 0.4973447051968923 0.5310754974221236 -0.01295779845336669 0.0
Si Si 0.4983535935954312 0.4734746777819982 0.5388644040058321 0.0
F F 0.5189175335887596 0.4850175778080699 0.7585047845968452 0.0
F F 0.5388431114305683 0.49054088677089275 0.2872653441011321 0.0
F F 0.5994734955103244 0.5840479221534727 0.4897202852007048 0.0
F F 0.4145296520377917 0.5640234161814068 0.5159004773866367 0.0
F F 0.4193631851293089 0.3859064978644832 0.5497608865041461 0.0
F F 0.6106915049264099 0.4013640079082595 0.5097046994216764 0.0
N N 0.48127807358367575 0.3435392658770112 0.035310951058928224 0.0
N N 0.53735398950892 0.663029593548968 -0.020290865116962438 0.0
N N 0.6401820916248152 0.518422969893832 0.04758430061529046 0.0
N N 0.3436646061421077 0.5419139582741137 -0.06046318690130715 0.0
_cell_length_a 13.6316
_cell_length_b 13.6316
_cell_length_c 7.968
_cell_angle_alpha 90.0
_cell_angle_beta 90.0
_cell_angle_gamma 90.0
_symmetry_space_group_name_H-M         'P 1'
_symmetry_Int_Tables_number            1
loop_
_symmetry_equiv_pos_as_xyz
   'x, y, z'
                         
loop_
_atom_site_label
_atom_site_type_symbol
_atom_site_fract_x 
_atom_site_fract_y
_atom_site_fract_z
_atom_site_charge
C C 0.6110562177419321 0.6974438944967837 0.11225631188707474 0.0
C C 0.5231444096148851 0.752723692386575 0.14961739464980336 0.0
C C 0.487220458377577 0.30290532001178544 0.06278914056554118 0.0
C C 0.4924673993134444 0.18265836511681668 0.10588288006348698 0.0
C C 0.2557828671286565 0.5393441565525033 0.1341218020192934 0.0
C C 0.18104435492859638 0.5623659813693085 0.2007251410392928 0.0
C C 0.7084987808946674 0.42606437503018285 0.10683572242119045 0.0
C C 0.7799470381613175 0.508730949196604 0.11056694400560393 0.0
C C 0.4324575864823896 0.6880889263326737 0.9661767063267197 0.0
C C 0.4559743798136458 0.779699905092992 0.8562396181166445 0.0
C C 0.5831338465262786 0.2877136162941799 0.9096887088961407 0.0
C C 0.5384877124109573 0.16561648050207523 0.8007455643522271 0.0
C C 0.7195099035255754 0.5226646700800947 0.8672970542625521 0.0
C C 0.8288930239166923 0.5564156742779536 0.850984043496132 0.0
C C 0.26107427516471365 0.5046041393619384 0.8364858240454737 0.0
C C 0.22984792106857446 0.4846356204753495 0.9689325267302192 0.0
C C 0.4660154115434616 0.2175311032151119 -0.021924765465028917 0.0
C C 0.5218539268728741 0.017969230654778897 -0.06325847073674704 0.0
C C 0.5470351227808095 0.8576502854372615 0.04846648671851195 0.0
C C 0.4662805543420473 0.9423794276630882 0.010971416470007371 0.0
C C 0.9096578271259905 0.46044306044263167 0.01716605782082923 0.0
C C 0.9307339259326316 0.5129529289596917 -0.10638681953148663 0.0
C C 0.16446568871917705 0.4813539532398098 -0.027038479369338456 0.0
C C -0.01141008037540672 0.4405165803667247 -0.01056446652518627 0.0
H H 0.6345842177419321 0.6542338944967838 0.22021931188707472 0.0
H H 0.548934409614885 0.790563692386575 0.26151539464980333 0.0
H H 0.46369245837757705 0.3461153200117854 0.17075214056554114 0.0
H H 0.4666773993134444 0.1448193651168167 0.21778088006348695 0.0
H H 0.2989928671286566 0.5628721565525032 0.2420848020192934 0.0
H H 0.1432053549285964 0.5881559813693085 0.3126231410392928 0.0
H H 0.6652887808946675 0.40253637503018286 0.2147987224211904 0.0
H H 0.8177870381613175 0.48294094919660396 0.22246494400560393 0.0
H H 0.40892958648238964 0.6448789263326737 0.8582137063267197 0.0
H H 0.4301843798136458 0.817539905092992 0.7443416181166445 0.0
H H 0.6066618465262785 0.33092361629417993 0.8017257088961406 0.0
H H 0.5642777124109573 0.1277774805020752 0.688847564352227 0.0
H H 0.6762999035255755 0.5461926700800946 0.7593340542625521 0.0
H H 0.8667330239166923 0.5822056742779536 0.7390860434961319 0.0
H H 0.30428427516471374 0.4810761393619383 0.7285228240454735 0.0
H H 0.19200892106857448 0.4588456204753495 0.8570345267302192 0.0
Cu Cu 0.5200891842934903 0.5294268861796466 0.03154438790737164 0.0
Si Si 0.5188865637789504 0.5209174509251087 0.5340664782635426 0.0
F F 0.5407504401083978 0.5249854600871192 0.6945927299998907 0.0
F F 0.48560456396734997 0.5270810462079264 0.2621337981319392 0.0
F F 0.6097808422443242 0.5912582755039117 0.5990687958215297 0.0
F F 0.42603428213943895 0.5982926473872414 0.543303195516114 0.0
F F 0.39887988871051505 0.4018746873037757 0.4954620960510136 0.0
F F 0.5803004763756721 0.3979811306776903 0.4658680449992606 0.0
N N 0.5182454027414354 0.31855988195250556 -0.03370861426040737 0.0
N N 0.4927655531097748 0.6541582547405725 -0.08156160189534953 0.0
N N 0.6641224230112056 0.532116280976092 0.02944661738727657 0.0
N N 0.3850239184781306 0.5115164899835073 -0.005786598697318214 0.0
_cell_length_a 13.6316
_cell_length_b 13.6316
_cell_length_c 7.968
_cell_angle_alpha 90.0
_cell_angle_beta 90.0
_cell_angle_gamma 90.0
_symmetry_space_group_name_H-M         'P 1'
_symmetry_Int_Tables_number            1
loop_
_symmetry_equiv_pos_as_xyz
   'x, y, z'
                         
loop_
_atom_site_label
_atom_site_type_symbol
_atom_site_fract_x 
_atom_site_fract_y
_atom_site_fract_z
_atom_site_charge
C C 0.5986762506133795 0.6868543736249555 0.05440782516002008 0.0
C C 0.5511678012221033 0.7879578823436194 0.16532221450446055 0.0
C C 0.44662523293207756 0.2989231311200254 0.16071215381390738 0.0
C C 0.5062019215484369 0.1845373182848775 0.12999777663774267 0.0
C C 0.3283161121954398 0.5213521841529547 0.04031219122081672 0.0
C C 0.18123975741464837 0.5017102584932654 0.10161604472662146 0.0
C C 0.6936374535483127 0.45075378342302624 0.15916219575036814 0.0
C C 0.772142406515903 0.5005577231077347 0.1078799424358136 0.0
C C 0.48412576817465286 0.6668042326367237 0.8686172948032473 0.0
C C 0.4862791378482031 0.8217806138094786 0.7859499597038958 0.0
C C 0.5779583623892207 0.3484836721151995 0.9177745880608666 0.0
C C 0.5190424088112509 0.16558241317934907 0.8604404474364205 0.0
C C 0.7190724326922027 0.5853626418962632 0.8479358877814858 0.0
C C 0.7875073670205296 0.51111091556295 0.9686997205304665 0.0
C C 0.3180199060439633 0.4232089565807099 0.7532489078319262 0.0
C C 0.19440427932878046 0.5026607913063209 0.7922204816826005 0.0
C C 0.4959072397773209 0.10974265281230612 0.09852620255605338 0.0
C C 0.46432036004730026 0.11118549141736277 0.13919816877928118 0.0
C C 0.49518884970341404 0.8355105205191609 0.052074897639694015 0.0
C C 0.4936982501709635 0.9571200561040168 -0.021905893656342178 0.0
C C 0.8946644919517494 0.4723606083496066 -0.04385153893848307 0.0
C C 0.964772179872463 0.4875227461573327 -0.025741425430604065 0.0
C C 0.11946538184891323 0.5312829795168131 -0.023606427016567743 0.0
C C 0.04469239385699476 0.4629609892480801 0.07015704653553324 0.0
H H 0.6222042506133795 0.6436443736249555 0.16237082516002005 0.0
H H 0.5769578012221033 0.8257978823436194 0.27722021450446055 0.0
H H 0.42309723293207757 0.3421331311200254 0.2686751538139074 0.0
H H 0.48041192154843687 0.14669831828487753 0.24189577663774264 0.0
H H 0.3715261121954399 0.5448801841529547 0.1482751912208167 0.0
H H 0.1434007574146484 0.5275002584932654 0.21351404472662144 0.0
H H 0.6504274535483128 0.4272257834230263 0.2671251957503681 0.0
H H 0.809982406515903 0.4747677231077347 0.21977794243581356 0.0
H H 0.4605977681746529 0.6235942326367239 0.7606542948032473 0.0
H H 0.4604891378482031 0.8596206138094786 0.6740519597038958 0.0
H H 0.6014863623892208 0.3916936721151995 0.8098115880608665 0.0
H H 0.544832408811251 0.12774341317934906 0.7485424474364204 0.0
H H 0.6758624326922027 0.6088906418962631 0.7399728877814856 0.0
H H 0.8253473670205296 0.5369009155629499 0.8568017205304664 0.0
H H 0.3612299060439633 0.3996809565807099 0.6452859078319262 0.0
H H 0.15656527932878048 0.4768707913063208 0.6803224816826005 0.0
Cu Cu 0.49324038481178006 0.5210817862384776 -0.04904277065705996 0.0
Si Si 0.5373800509921538 0.5123537993652327 0.486482220946928 0.0
F F 0.511600593256056 0.4620578711455147 0.6628243436408042 0.0
F F 0.4546499680774022 0.4976160521491874 0.2830535857000669 0.0
F F 0.5516961180287048 0.603377730494859 0.4949439105778135 0.0
F F 0.36035900713126995 0.5610033840739573 0.5412729883155225 0.0
F F 0.42599297764281735 0.42746463701946097 0.4577216862966362 0.0
F F 0.5930231525416507 0.39301964478907464 0.47029351718127405 0.0
N N 0.5190446350456567 0.2846794723866546 -0.0412746178685108 0.0
N N 0.5412549274373801 0.6415869449275242 0.05683301809151947 0.0
N N 0.6253468586766403 0.503492873673783 -0.003995032310376564 0.0
N N 0.3363377719181158 0.4765763220739273 0.08688287427916686 0.0
_cell_length_a 13.6316
_cell_length_b 13.6316
_cell_length_c 7.968
_cell_angle_alpha 90.0
_cell_angle_beta 90.0
_cell_angle_gamma 90.0
_symmetry_space_group_name_H-M         'P 1'
_symmetry_Int_Tables_number            1
loop_
_symmetry_equiv_pos_as_xyz
   'x, y, z'
                         
loop_
_atom_site_label
_atom_site_type_symbol
_atom_site_fract_x 
_atom_site_fract_y
_atom_site_fract_z
_atom_site_charge
C C 0.5873059616624784 0.7094555964279403 0.13708327230142245 0.0
C C 0.5734438037926297 0.8413006696970624 0.07967902746334196 0.0
C C 0.523013046781206 0.29166909890154585 0.17226148758667656 0.0
C C 0.5242984414276042 0.1830908698005233 0.22413372757582617 0.0
C C 0.29481408493455535 0.5452010319333819 0.08971877482775649 0.0
C C 0.16703416007530292 0.5519978193515045 0.10381330792222972 0.0
C C 0.6634682126682264 0.4403828493374727 0.07623701173214419 0.0
C C 0.7908858527470604 0.4137648387496241 0.19359408973785577 0.0
C C 0.4854867717527682 0.7274312185647653 0.7877085047610863 0.0
C C 0.47489308387372287 0.7578263751176514 0.7800775584873965 0.0
C C 0.5406455834992776 0.34858611178319243 0.8860402578599187 0.0
C C 0.47518473460108646 0.20344899766971722 0.7645828570910199 0.0
C C 0.7226609576740223 0.49339841692729614 0.8966141681904851 0.0
C C 0.8053659729816763 0.48691982050929833 0.9228995065007025 0.0
C C 0.2635035782197568 0.5110334006537237 0.8607721556739267 0.0
C C 0.22632464109770795 0.47225150892765183 0.7740941430071738 0.0
C C 0.5011680579919856 0.133796740427686 -0.05640464516434782 0.0
C C 0.49202568403825264 0.02876964115925538 -0.037309450807112794 0.0
C C 0.527885076733492 0.8448476662573539 -0.06928466355136893 0.0
C C 0.49430367791520696 1.0190396493830678 -0.04961430522460891 0.0
C C 0.79917286483105 0.5085229238383114 0.018349578474197027 0.0
C C 0.946102124893225 0.4493907741241516 -0.09626500607878767 0.0
C C 0.12138860680800673 0.5027211109174136 -0.017279244795821172 0.0
C C 0.034144663849192666 0.477544666833679 -0.05421157613931578 0.0
H H 0.6108339616624784 0.6662455964279403 0.2450462723014224 0.0
H H 0.5992338037926297 0.8791406696970624 0.19157702746334193 0.0
H H 0.49948504678120603 0.3348790989015458 0.2802244875866765 0.0
H H 0.49850844142760414 0.14525186980052332 0.33603172757582617 0.0
H H 0.33802408493455544 0.5687290319333819 0.19768177482775645 0.0
H H 0.12919516007530296 0.5777878193515045 0.21571130792222967 0.0
H H 0.6202582126682264 0.4168548493374727 0.18420001173214415 0.0
H H 0.8287258527470603 0.3879748387496241 0.30549208973785574 0.0
H H 0.4619587717527683 0.6842212185647654 0.6797455047610863 0.0
H H 0.4491030838737229 0.7956663751176514 0.6681795584873964 0.0
H H 0.5641735834992776 0.39179611178319246 0.7780772578599185 0.0
H H 0.5009747346010864 0.1656099976697172 0.6526848570910199 0.0
H H 0.6794509576740223 0.5169264169272961 0.788651168190485 0.0
H H 0.8432059729816763 0.5127098205092984 0.8110015065007025 0.0
H H 0.30671357821975687 0.4875054006537237 0.7528091556739267 0.0
H H 0.18848564109770796 0.4464615089276518 0.6621961430071738 0.0
Cu Cu 0.44287551639684186 0.49467888681825467 0.006576010085768043 0.0
Si Si 0.48371882101869984 0.5351425338144261 0.5131582567659081 0.0
F F 0.475478374530973 0.5050590273722283 0.7961035747728031 0.0
F F 0.5351952094096638 0.513021315385735 0.33296715900688106 0.0
F F 0.5612443266230672 0.5481073197151323 0.5278201668297122 0.0
F F 0.3933686824379307 0.5966248295427621 0.4961025880740938 0.0
F F 0.4474111856145689 0.40444886298356303 0.5293942291038038 0.0
F F 0.5986280718971988 0.41045375548773416 0.49086154925074976 0.0
N N 0.4599320013253836 0.3699288382491616 0.019407258319427592 0.0
N N 0.4653359953776132 0.7018197632279043 -0.01524264513715306 0.0
N N 0.641764886656393 0.44688067868047454 -0.021156340579189557 0.0
N N 0.32658427865319384 0.4872431575672883 0.061829566054423725 0.0
_cell_length_a 13.6316
_cell_length_b 13.6316
_cell_length_c 7.968
_cell_angle_alpha 90.0
_cell_angle_beta 90.0
_cell_angle_gamma 90.0
_symmetry_space_group_name_H-M         'P 1'
_symmetry_Int_Tables_number            1
loop_
_symmetry_equiv_pos_as_xyz
   'x, y, z'
                         
loop_
_atom_site_label
_atom_site_type_symbol
_atom_site_fract_x 
_atom_site_fract_y
_atom_site_fract_z
_atom_site_charge
C C 0.5333926241139206 0.7176375570634834 0.14469798065595724 0.0
C C 0.5402955942076731 0.8769982833760199 0.13575599426322066 0.0
C C 0.41873988491151987 0.3299640052046365 0.11553142962265432 0.0
C C 0.46037450372570593 0.20232678684079206 0.06794886940488847 0.0
C C 0.3469435407913863 0.5363302823405537 0.1817544892787356 0.0
C C 0.20834501940579794 0.539251246820159 0.09823736283952156 0.0
C C 0.7062463081261381 0.49827348208362887 0.10477208685009635 0.0
C C 0.7574300283680493 0.476673087539871 0.1361397826663496 0.0
C C 0.5073489858046963 0.6874970285453162 0.8358699446383159 0.0
C C 0.5099834118926647 0.8190637069499593 0.8541558477780352 0.0
C C 0.5464376604525648 0.2894675548175641 0.8868509036236938 0.0
C C 0.5969590474703875 0.19305524729040952 0.9054408420868159 0.0
C C 0.7203944349113441 0.4947320946579104 0.8998672333885125 0.0
C C 0.8279702097693501 0.5449013804982414 0.9639512895782778 0.0
C C 0.2935459859542491 0.44078690083243666 0.8557816288657751 0.0
C C 0.1994448084500688 0.470091879303091 0.7813650168361931 0.0
C C 0.5206006877220026 0.10223011339792326 -0.11239759574720562 0.0
C C 0.5535523501454362 0.016707949096915184 0.02226370024502943 0.0
C C 0.5198125083060515 0.8439527146735372 0.024211265113312265 0.0
C C 0.48733813540019244 0.9912658906892382 0.04709265566021014 0.0
C C 0.9307601413102408 0.519185970629975 -0.051023371343125526 0.0
C C 0.8784517463626615 0.4149883555678447 0.13268035518296023 0.0
C C 0.17092884306450198 0.5115289788539743 0.07115709226108674 0.0
C C 0.018368546450772044 0.5547942331115161 0.01654610253250367 0.0
H H 0.5569206241139206 0.6744275570634835 0.2526609806559572 0.0
H H 0.566085594207673 0.9148382833760199 0.24765399426322063 0.0
H H 0.3952118849115199 0.3731740052046365 0.22349442962265428 0.0
H H 0.4345845037257059 0.16448778684079207 0.17984686940488845 0.0
H H 0.3901535407913864 0.5598582823405537 0.2897174892787356 0.0
H H 0.17050601940579793 0.565041246820159 0.21013536283952153 0.0
H H 0.6630363081261382 0.4747454820836289 0.21273508685009634 0.0
H H 0.7952700283680493 0.45088308753987094 0.2480377826663496 0.0
H H 0.4838209858046963 0.6442870285453163 0.7279069446383157 0.0
H H 0.48419341189266457 0.8569037069499593 0.7422578477780352 0.0
H H 0.5699656604525648 0.3326775548175641 0.7788879036236938 0.0
H H 0.6227490474703876 0.15521624729040953 0.7935428420868158 0.0
H H 0.6771844349113442 0.5182600946579105 0.7919042333885123 0.0
H H 0.8658102097693501 0.5706913804982414 0.8520532895782778 0.0
H H 0.33675598595424916 0.4172589008324367 0.747818628865775 0.0
H H 0.1616058084500688 0.444301879303091 0.669467016836193 0.0
Cu Cu 0.5450758629860519 0.5225587411509827 -0.03196270672101975 0.0
Si Si 0.5323471582233515 0.4658632043455753 0.48136706808987983 0.0
F F 0.5416666655170151 0.47812133596811773 0.7061811886352112 0.0
F F 0.5208795952083164 0.490744017525734 0.21408478173231277 0.0
F F 0.6099602309482882 0.5862662163023236 0.5067760865342034 0.0
F F 0.44975288048891165 0.5857142576843457 0.4723472369994573 0.0
F F 0.4213920851745414 0.4164672151366351 0.5722528854869522 0.0
F F 0.5829781794681347 0.45742399735596256 0.4898357892433263 0.0
N N 0.4667808590236833 0.3464906292499722 -0.011677740301995634 0.0
N N 0.5001033502600257 0.6726060361396011 0.008526321010238164 0.0
N N 0.6847331518223535 0.46374519211910414 0.05826719471005505 0.0
N N 0.31643481707653737 0.5158770352477092 -0.033064439535431964 0.0
_cell_length_a 13.6316
_cell_length_b 13.6316
_cell_length_c 7.968
_cell_angle_alpha 90.0
_cell_angle_beta 90.0
_cell_angle_gamma 90.0
_symmetry_space_group_name_H-M         'P 1'
_symmetry_Int_Tables_number            1
loop_
_symmetry_equiv_pos_as_xyz
   'x, y, z'
                         
loop_
_atom_site_label
_atom_site_type_symbol
_atom_site_fract_x 
_atom_site_fract_y
_atom_site_fract_z
_atom_site_charge
C C 0.5677292207144211 0.7023514929597416 0.09967968264912774 0.0
C C 0.6003009590383128 0.7824590065018038 0.16417465697360478 0.0
C C 0.48201817712708045 0.28729317596250176 0.16102565862953233 0.0
C C 0.47917506683973077 0.14918519984274622 0.20968759120951863 0.0
C C 0.33883664497213734 0.5048189500532665 0.10631772660169736 0.0
C C 0.19313669070064943 0.5433528804367569 0.0538233700959739 0.0
C C 0.6210799925924411 0.4939804133689183 0.12381940587652918 0.0
C C 0.7895798758942801 0.4327437958397318 0.07296537570101434 0.0
C C 0.45492372512937324 0.666153188113869 0.8592137154712627 0.0
C C 0.47295064154044064 0.753990586798168 0.8512684362887118 0.0
C C 0.58177535009807 0.30218162286834316 0.8791906834738267 0.0
C C 0.5302020978852469 0.2076402327651814 0.8332586248599497 0.0
C C 0.6638374965595707 0.5567320179443094 0.913645785220721 0.0
C C 0.7833240881581552 0.5001331710966574 0.8344039465833705 0.0
C C 0.27191299506917077 0.5007572874254291 0.7250179821154836 0.0
C C 0.15557197958552668 0.4853349068334728 0.8862264570339511 0.0
C C 0.4875140690518091 0.15647846372316454 0.03212203356460109 0.0
C C 0.4907173983389958 0.03416346396983393 0.01642540853474368 0.0
C C 0.517173464188069 0.8489043636835608 -0.011391623791061496 0.0
C C 0.5366700440539299 0.937198870186347 0.04127986810336333 0.0
C C 0.8894243805051637 0.5203936704670146 -0.0480867674641256 0.0
C C 0.9421939186992768 0.5193330057555612 -0.007498320846379309 0.0
C C 0.20426211937599223 0.47245343136025253 0.01822330156541758 0.0
C C 0.10632793687507519 0.5424836969387048 -0.04654055879424918 0.0
H H 0.5912572207144211 0.6591414929597417 0.20764268264912772 0.0
H H 0.6260909590383128 0.8202990065018038 0.2760726569736047 0.0
H H 0.4584901771270805 0.3305031759625018 0.2689886586295323 0.0
H H 0.45338506683973073 0.11134619984274621 0.32158559120951863 0.0
H H 0.3820466449721374 0.5283469500532665 0.21428072660169734 0.0
H H 0.15529769070064944 0.5691428804367569 0.16572137009597387 0.0
H H 0.5778699925924412 0.4704524133689183 0.23178240587652915 0.0
H H 0.8274198758942801 0.4069537958397318 0.18486337570101433 0.0
H H 0.4313957251293733 0.6229431881138691 0.7512507154712627 0.0
H H 0.44716064154044066 0.791830586798168 0.7393704362887118 0.0
H H 0.60530335009807 0.34539162286834324 0.7712276834738266 0.0
H H 0.5559920978852467 0.1698012327651814 0.7213606248599496 0.0
H H 0.6206274965595707 0.5802600179443094 0.8056827852207209 0.0
H H 0.8211640881581552 0.5259231710966575 0.7225059465833704 0.0
H H 0.31512299506917085 0.4772292874254291 0.6170549821154835 0.0
H H 0.1177329795855267 0.4595449068334728 0.774328457033951 0.0
Cu Cu 0.5313159263465511 0.5060978730580068 0.00523322841629553 0.0
Si Si 0.510835621011268 0.49192874088591054 0.523553473470003 0.0
F F 0.5174688064986068 0.5524488497350852 0.744742242087097 0.0
F F 0.4978605848015076 0.5358802741367262 0.3338039809715483 0.0
F F 0.5711393485748492 0.5837297047264098 0.5246253426945521 0.0
F F 0.4016615264358055 0.5917782832407049 0.587140347757672 0.0
F F 0.4118650454094216 0.4308690734244074 0.46201461331052207 0.0
F F 0.5885687508652846 0.4269025822924658 0.43105623131399756 0.0
N N 0.4930308484860379 0.37706620003473684 -0.00971973703760002 0.0
N N 0.5238144527673608 0.6247405671248921 0.003421369108269705 0.0
N N 0.6396033080749731 0.4771584075742826 -0.01147134510142138 0.0
N N 0.32293717026905566 0.5086685227463837 -0.004680834903307083 0.0
