_cell_length_a 13.6316
_cell_length_b 13.6316
_cell_length_c 7.968
_cell_angle_alpha 90.0
_cell_angle_beta 90.0
_cell_angle_gamma 90.0
_symmetry_space_group_name_H-M         'P 1'
_symmetry_Int_Tables_number            1
loop_
_symmetry_equiv_pos_as_xyz
   'x, y, z'
                         
loop_
_atom_site_label
_atom_site_type_symbol
_atom_site_fract_x 
_atom_site_fract_y
_atom_site_fract_z
_atom_site_charge
C C 0.5647338326398174 0.6686816511627729 0.12863666781514155 0.0
C C 0.521236672184431 0.7788670126300741 0.21423718969545083 0.0
C C 0.46005313550356325 0.2553088550953793 0.06832534551005318 0.0
C C 0.49147296371633903 0.15432534007699256 0.10107366180577548 0.0
C C 0.315727658792605 0.5334042930618126 0.14739089579845152 0.0
C C 0.20661034108623516 0.5577182487987317 0.12052713177046065 0.0
C C 0.6839328770907247 0.43361712641371086 0.12261516817203867 0.0
C C 0.764116051982354 0.39870226649986074 -0.00744852904700317 0.0
C C 0.5154647973356348 0.7179833498975136 0.8190616623061631 0.0
C C 0.49135369336147494 0.8242330692626767 0.8537409517685758 0.0
C C 0.5896310454879851 0.3325869906780886 0.8327258395631303 0.0
C C 0.4783137494281973 0.14894644946772262 0.8403999946207179 0.0
C C 0.7477061828890809 0.5044242430339714 0.9394125810983284 0.0
C C 0.7705878615059576 0.5176370002490147 0.8213186408208198 0.0
C C 0.28370394971696433 0.471723215455623 0.7473792741457131 0.0
C C 0.15481771430254465 0.5254436164090421 0.9115477187461628 0.0
C C 0.4899787804086957 0.11992849618425568 0.01631789090983112 0.0
C C 0.4769005080915484 0.015301058730301369 -0.002526626582801823 0.0
C C 0.48542695732066615 0.8498610982440907 -0.0038212484902823115 0.0
C C 0.5674675029405545 0.9612950108487374 -0.027681819591572725 0.0
C C 0.8656004969305077 0.49487738722316 -0.01501947276739018 0.0
C C 0.9773106162762506 0.49122029890847224 -0.08433629249440056 0.0
C C 0.13365702618797096 0.5207869279788601 -0.11954395628053908 0.0
C C 0.04729887383323289 0.5139541322678669 0.062376320218796195 0.0
H H 0.5882618326398174 0.6254716511627729 0.23659966781514152 0.0
H H 0.547026672184431 0.8167070126300742 0.32613518969545086 0.0
H H 0.4365251355035633 0.29851885509537934 0.17628834551005315 0.0
H H 0.465682963716339 0.11648634007699255 0.21297166180577545 0.0
H H 0.3589376587926051 0.5569322930618126 0.25535389579845147 0.0
H H 0.16877134108623515 0.5835082487987316 0.23242513177046065 0.0
H H 0.6407228770907247 0.41008912641371087 0.23057816817203863 0.0
H H 0.801956051982354 0.3729122664998607 0.10444947095299681 0.0
H H 0.49193679733563467 0.6747733498975137 0.711098662306163 0.0
H H 0.46556369336147496 0.8620730692626767 0.7418429517685756 0.0
H H 0.6131590454879852 0.3757969906780887 0.7247628395631301 0.0
H H 0.5041037494281974 0.11110744946772262 0.7285019946207179 0.0
H H 0.7044961828890809 0.5279522430339714 0.8314495810983283 0.0
H H 0.8084278615059576 0.5434270002490147 0.7094206408208198 0.0
H H 0.3269139497169644 0.448195215455623 0.639416274145713 0.0
H H 0.11697871430254467 0.4996536164090421 0.7996497187461626 0.0
Cu Cu 0.5307862659980698 0.5262864981090137 0.005146770395429087 0.0
Si Si 0.5314158221894566 0.5104779442320415 0.5596987765284683 0.0
F F 0.5088551435501734 0.49504003522575174 0.6767135665322597 0.0
F F 0.459263495243195 0.5077616402144541 0.25083395161496347 0.0
F F 0.5823362420029919 0.6093750650972385 0.5132809460298811 0.0
F F 0.3849418312244188 0.5830722635521414 0.5363053666751085 0.0
F F 0.38664407055410255 0.40200550516651234 0.43863590025327903 0.0
F F 0.5805714919867866 0.4060277960771025 0.4577850599843995 0.0
N N 0.5130587191742156 0.3199203857405375 0.023545115208385474 0.0
N N 0.4912854869686374 0.6601264462069326 -0.015599112273091251 0.0
N N 0.5907926549962408 0.4936278434383053 -0.042469004710624515 0.0
N N 0.36594822118236187 0.4379756949282722 0.08811071196348667 0.0
_cell_length_a 13.6316
_cell_length_b 13.6316
_cell_length_c 7.968
_cell_angle_alpha 90.0
_cell_angle_beta 90.0
_cell_angle_gamma 90.0
_symmetry_space_group_name_H-M         'P 1'
_symmetry_Int_Tables_number            1
loop_
_symmetry_equiv_pos_as_xyz
   'x, y, z'
                         
loop_
_atom_site_label
_atom_site_type_symbol
_atom_site_fract_x 
_atom_site_fract_y
_atom_site_fract_z
_atom_site_charge
C C 0.520507193838231 0.7449063793802222 0.1539646023376637 0.0
C C 0.5518747773529432 0.8202852376430115 0.15357947775460706 0.0
C C 0.4650834994560648 0.30274260469186914 0.19576141756589505 0.0
C C 0.46092821543577234 0.21367186675623157 0.07913733777259012 0.0
C C 0.2877831348124956 0.5300477981385634 0.11000276639789436 0.0
C C 0.19283074219212049 0.5262072068894457 0.18056443120839058 0.0
C C 0.6739490864061561 0.4534341746116914 0.13351465457981185 0.0
C C 0.8036672772029112 0.4951399219574753 0.174038443617766 0.0
C C 0.5423173419190138 0.6682160242616936 0.8667574246934043 0.0
C C 0.4553572787617211 0.7949975173866947 0.8782083693775596 0.0
C C 0.5309824433298372 0.28928591210509613 0.946187850889532 0.0
C C 0.5568043750619968 0.17513104543085767 0.9663585836364704 0.0
C C 0.7094827960804304 0.5535943703166258 0.8726452849926764 0.0
C C 0.8058893602377788 0.47307414294478 0.8123091884264276 0.0
C C 0.27931475823250973 0.46993927508681566 0.9219398133605559 0.0
C C 0.19205232368619454 0.46634240174975317 0.867117835209368 0.0
C C 0.5110936543488501 0.11847701383677776 0.0813563348900471 0.0
C C 0.5086888352413478 0.04403006887917734 0.10919930020356437 0.0
C C 0.49635605806143895 0.9130516090630341 0.08614293021980464 0.0
C C 0.4864290583430781 0.8835590714984579 -0.049459852120392105 0.0
C C 0.8414352046460527 0.5402624269831883 0.0033208787878208383 0.0
C C 0.9934586645587072 0.48458145787291795 0.01358948486370687 0.0
C C 0.12907654531480783 0.4880953511395647 0.0012258343708326147 0.0
C C 0.004028475110938837 0.5390132443976082 0.0842262220963125 0.0
H H 0.544035193838231 0.7016963793802222 0.26192760233766366 0.0
H H 0.5776647773529432 0.8581252376430115 0.26547747775460706 0.0
H H 0.4415554994560648 0.34595260469186917 0.303724417565895 0.0
H H 0.4351382154357723 0.17583286675623158 0.1910353377725901 0.0
H H 0.3309931348124957 0.5535757981385633 0.21796576639789433 0.0
H H 0.15499174219212047 0.5519972068894455 0.2924624312083906 0.0
H H 0.6307390864061562 0.4299061746116914 0.24147765457981182 0.0
H H 0.8415072772029113 0.46934992195747527 0.28593644361776593 0.0
H H 0.5187893419190139 0.6250060242616936 0.7587944246934043 0.0
H H 0.4295672787617211 0.8328375173866946 0.7663103693775596 0.0
H H 0.5545104433298372 0.33249591210509616 0.8382248508895319 0.0
H H 0.5825943750619967 0.13729204543085766 0.8544605836364704 0.0
H H 0.6662727960804304 0.5771223703166258 0.7646822849926763 0.0
H H 0.8437293602377788 0.49886414294478004 0.7004111884264276 0.0
H H 0.3225247582325098 0.44641127508681566 0.8139768133605558 0.0
H H 0.15421332368619456 0.4405524017497532 0.755219835209368 0.0
Cu Cu 0.49382589767225343 0.5246533387245718 -0.08603969732907649 0.0
Si Si 0.5355676127357832 0.5321335084144384 0.5094450754994483 0.0
F F 0.47403830947629133 0.5086683492387011 0.794925673016356 0.0
F F 0.5189975615585525 0.5061934990694332 0.22702606337076126 0.0
F F 0.5906561985709243 0.5591997922077239 0.5350561706119514 0.0
F F 0.4205459433643364 0.5948238333504229 0.4625180682961118 0.0
F F 0.307528688490308 0.42601012060701676 0.5149465465502753 0.0
F F 0.5520108779361336 0.4224009353454275 0.5377863613267009 0.0
N N 0.449559012324354 0.29273907709502095 -0.05174158998593065 0.0
N N 0.46882031077458125 0.6646675751157809 0.011176129039521133 0.0
N N 0.6217350299089365 0.5184282453182713 -0.019960916490565736 0.0
N N 0.3244018494208328 0.49243066952428344 0.023798019274724875 0.0
_cell_length_a 13.6316
_cell_length_b 13.6316
_cell_length_c 7.968
_cell_angle_alpha 90.0
_cell_angle_beta 90.0
_cell_angle_gamma 90.0
_symmetry_space_group_name_H-M         'P 1'
_symmetry_Int_Tables_number            1
loop_
_symmetry_equiv_pos_as_xyz
   'x, y, z'
                         
loop_
_atom_site_label
_atom_site_type_symbol
_atom_site_fract_x 
_atom_site_fract_y
_atom_site_fract_z
_atom_site_charge
C C 0.47501375346750446 0.716394458456628 0.12846916902936564 0.0
C C 0.5376541080099099 0.8069563801040324 0.14540281901473365 0.0
C C 0.46467003225708164 0.2982664816886018 0.11101851631362473 0.0
C C 0.49606341787661984 0.19506823021850295 0.12669187790850953 0.0
C C 0.3379820837075251 0.5275830964739673 0.1166042983543819 0.0
C C 0.2348992296793931 0.55175478567544 0.1470681094726426 0.0
C C 0.732989285953395 0.4467301180691671 0.1676389222481112 0.0
C C 0.7842266264762362 0.49283758706471964 0.09102062437107564 0.0
C C 0.5259792152036434 0.7022853671579659 0.8716544367706905 0.0
C C 0.5119890143748262 0.8693064272017548 0.8835401135054678 0.0
C C 0.570962513771856 0.32453502074168217 0.9155842912026451 0.0
C C 0.49024229900816113 0.16642778766926544 0.8084795194078453 0.0
C C 0.697666753245222 0.537433282978149 0.7859586544024371 0.0
C C 0.7668121839366048 0.5624306489875988 0.7914227306547971 0.0
C C 0.2965138022260328 0.43110245623718463 0.9732777311699151 0.0
C C 0.18590594795302495 0.49944649491794 0.7918650856321153 0.0
C C 0.5026264611509522 0.13254941412507035 -0.03547079327853625 0.0
C C 0.5130519215464888 0.0438594818888322 -0.032886611722365754 0.0
C C 0.4991961502837941 0.8487343566827095 0.051553066283186975 0.0
C C 0.4646903415010834 0.9476022257787795 0.01859750997051079 0.0
C C 0.8070188479472247 0.46877049537319815 -0.025529069145918796 0.0
C C 0.9406317192858575 0.5214717467416673 -0.0735149593742712 0.0
C C 0.11586994991322079 0.4818794078340447 0.08931805057214551 0.0
C C 0.02530041533820472 0.5108733472299971 0.10131194862246426 0.0
H H 0.49854175346750446 0.6731844584566281 0.23643216902936562 0.0
H H 0.5634441080099098 0.8447963801040321 0.2573008190147336 0.0
H H 0.4411420322570817 0.34147648168860184 0.21898151631362472 0.0
H H 0.4702734178766198 0.15722923021850294 0.23858987790850952 0.0
H H 0.38119208370752516 0.5511110964739673 0.22456729835438188 0.0
H H 0.19706022967939313 0.5775447856754399 0.2589661094726426 0.0
H H 0.689779285953395 0.42320211806916713 0.27560192224811114 0.0
H H 0.8220666264762362 0.4670475870647196 0.2029186243710756 0.0
H H 0.5024512152036434 0.6590753671579659 0.7636914367706905 0.0
H H 0.48619901437482616 0.9071464272017548 0.7716421135054677 0.0
H H 0.594490513771856 0.3677450207416822 0.8076212912026449 0.0
H H 0.5160322990081612 0.12858878766926546 0.6965815194078453 0.0
H H 0.6544567532452221 0.560961282978149 0.6779956544024369 0.0
H H 0.8046521839366048 0.5882206489875988 0.679524730654797 0.0
H H 0.3397238022260328 0.40757445623718463 0.8653147311699151 0.0
H H 0.14806694795302497 0.47365649491794004 0.6799670856321153 0.0
Cu Cu 0.5190237497915519 0.48585790163619524 -0.09351816209460587 0.0
Si Si 0.5001044233349151 0.5133257183603839 0.44722753542070515 0.0
F F 0.5167114669810107 0.5100172600055071 0.7059286291556449 0.0
F F 0.4574904328538455 0.5464215104992839 0.25085999162304123 0.0
F F 0.5740146899113212 0.5885652202391948 0.4645809798611572 0.0
F F 0.4243634010549446 0.6221633501387845 0.4972061270044676 0.0
F F 0.4755196795511574 0.45180910273790437 0.5553917111661928 0.0
F F 0.5827473533389492 0.42829661994018575 0.4641628138910087 0.0
N N 0.503431922295603 0.3405098602881818 -0.09843557713894233 0.0
N N 0.48269859273573396 0.6547099331507867 -0.06962564630972809 0.0
N N 0.6647779588828526 0.4890018644708656 -0.026134864129572194 0.0
N N 0.36018825336064614 0.5180378671570198 0.028561353383676685 0.0
_cell_length_a 13.6316
_cell_length_b 13.6316
_cell_length_c 7.968
_cell_angle_alpha 90.0
_cell_angle_beta 90.0
_cell_angle_gamma 90.0
_symmetry_space_group_name_H-M         'P 1'
_symmetry_Int_Tables_number            1
loop_
_symmetry_equiv_pos_as_xyz
   'x, y, z'
                         
loop_
_atom_site_label
_atom_site_type_symbol
_atom_site_fract_x 
_atom_site_fract_y
_atom_site_fract_z
_atom_site_charge
C C 0.5588135538596769 0.7203635766977078 0.10080330161533796 0.0
C C 0.5513052008973149 0.7814906990861188 0.17803255026904613 0.0
C C 0.46774740792771835 0.2702592903834756 0.10169476560177516 0.0
C C 0.47453125164200544 0.18571618144774935 0.05749108591645727 0.0
C C 0.27856533860061317 0.529971686967627 0.1181200400957969 0.0
C C 0.22291877850745312 0.543539420132142 0.10932693365595297 0.0
C C 0.7197843945686405 0.45872794260387234 0.059788021624162684 0.0
C C 0.7659195291454728 0.43352891538585847 0.14171393160646464 0.0
C C 0.4721460274532382 0.6992901101010552 0.9353037760209987 0.0
C C 0.4609107878941249 0.7928427362601622 0.8737632662827977 0.0
C C 0.5694649208956072 0.3294368900082042 0.8272784928046373 0.0
C C 0.5272352564070416 0.23639497361051798 0.8269196657444504 0.0
C C 0.7123985369670844 0.5417203332420002 0.7538376720608928 0.0
C C 0.7774993089732174 0.5317438559444249 0.8317410953784896 0.0
C C 0.2991213501383735 0.4871039632939057 0.8703893361971814 0.0
C C 0.25364476638823324 0.4755524731392306 0.8800534747412762 0.0
C C 0.46533999301897006 0.15119798392739958 -0.02640434538878206 0.0
C C 0.4909439208301929 -0.017930678997938845 -0.03914299471027679 0.0
C C 0.48901556917454514 0.8689241718287581 0.049891747358698245 0.0
C C 0.5110976680755064 0.9511291531372268 -0.0539825447032422 0.0
C C 0.9454248160827983 0.49462303020011017 -0.050600375167849126 0.0
C C 0.9283921658694234 0.48695331137408476 0.11382505530238017 0.0
C C 0.11516257636361563 0.4973831759669978 0.02788573092831807 0.0
C C -0.000728828369655862 0.5018729620286826 -0.03451105429042818 0.0
H H 0.5823415538596769 0.6771535766977078 0.20876630161533793 0.0
H H 0.5770952008973149 0.8193306990861188 0.2899305502690461 0.0
H H 0.44421940792771836 0.31346929038347565 0.20965776560177513 0.0
H H 0.4487412516420054 0.14787718144774933 0.16938908591645724 0.0
H H 0.32177533860061325 0.553499686967627 0.22608304009579686 0.0
H H 0.18507977850745314 0.5693294201321419 0.22122493365595294 0.0
H H 0.6765743945686405 0.43519994260387246 0.16775102162416264 0.0
H H 0.8037595291454728 0.40773891538585844 0.2536119316064646 0.0
H H 0.4486180274532382 0.6560801101010553 0.8273407760209985 0.0
H H 0.4351207878941249 0.8306827362601622 0.7618652662827976 0.0
H H 0.5929929208956072 0.3726468900082043 0.7193154928046372 0.0
H H 0.5530252564070416 0.198555973610518 0.7150216657444504 0.0
H H 0.6691885369670845 0.5652483332420002 0.6458746720608927 0.0
H H 0.8153393089732174 0.5575338559444248 0.7198430953784896 0.0
H H 0.34233135013837357 0.46357596329390577 0.7624263361971814 0.0
H H 0.21580576638823332 0.4497624731392306 0.7681554747412761 0.0
Cu Cu 0.5045077282344754 0.48767323094667037 -0.05183966316099963 0.0
Si Si 0.49722413194098625 0.503150972744824 0.5463761363771749 0.0
F F 0.47620009991095713 0.5144521721079063 0.6825739635910497 0.0
F F 0.4649665082068569 0.47539643491994044 0.2555808634272691 0.0
F F 0.6561581937998893 0.6196344678912226 0.5532014253677116 0.0
F F 0.39134124600638737 0.5700682172887139 0.44249721245945284 0.0
F F 0.4190041867457849 0.4662050167282093 0.5520335063012902 0.0
F F 0.6118771815667275 0.3667618981710503 0.4381608245919607 0.0
N N 0.5256755293922174 0.3451766432490553 0.036813499988525844 0.0
N N 0.5299608929475859 0.6200008197174613 0.055488271726687854 0.0
N N 0.6584244299245735 0.5194212430395219 -0.0401484280247174 0.0
N N 0.32534498778556814 0.5051354354023079 -0.04510240563153059 0.0
_cell_length_a 13.6316
_cell_length_b 13.6316
_cell_length_c 7.968
_cell_angle_alpha 90.0
_cell_angle_beta 90.0
_cell_angle_gamma 90.0
_symmetry_space_group_name_H-M         'P 1'
_symmetry_Int_Tables_number            1
loop_
_symmetry_equiv_pos_as_xyz
   'x, y, z'
                         
loop_
_atom_site_label
_atom_site_type_symbol
_atom_site_fract_x 
_atom_site_fract_y
_atom_site_fract_z
_atom_site_charge
C C 0.5117290178067024 0.6890488766861977 0.05469036819274935 0.0
C C 0.5443530236536837 0.764696262432974 0.09352105556322543 0.0
C C 0.5383910751801273 0.36113372591563275 0.23982434530960747 0.0
C C 0.44139048875698794 0.24705994660815261 0.2236658309450708 0.0
C C 0.31044912972980654 0.5632675481714561 0.09765876186968353 0.0
C C 0.16748071210427243 0.5224960940651228 0.09415985316468511 0.0
C C 0.6626635363650445 0.48672297758601296 0.1680941980096454 0.0
C C 0.8437245418219289 0.4966789720620817 0.011246040406044874 0.0
C C 0.47248794886612105 0.7312135790787282 0.9065356950455434 0.0
C C 0.43506445318771103 0.8124957861352163 0.828439814796512 0.0
C C 0.5280090709688687 0.31099122437008836 0.776800351646256 0.0
C C 0.5230689066338682 0.1748850454714232 0.9064556076693621 0.0
C C 0.742704174255764 0.5407952020164088 0.8412640328574552 0.0
C C 0.8444120285963038 0.5211505429696995 0.8782590678550408 0.0
C C 0.3065837178471951 0.4041410766360087 0.8734858054687463 0.0
C C 0.2016103874271168 0.4401702192921918 0.8277059822771909 0.0
C C 0.49935385009736444 0.152296073273952 -0.08645936783965111 0.0
C C 0.45981281207941943 0.07269467091943456 -0.09106675461362515 0.0
C C 0.5228641583681637 0.8195929162043883 -0.057582864980748355 0.0
C C 0.5054902949725717 0.8997650657668914 -0.002426278242848154 0.0
C C 0.7955101143825319 0.5481005691287199 -0.05921138631050043 0.0
C C 0.9491385050315307 0.45308517210879135 0.04496715828366263 0.0
C C 0.1254617761751039 0.5429080836781859 -0.0088699951780034 0.0
C C 0.03769099758587276 0.48127947336256605 -0.06533853083586447 0.0
H H 0.5352570178067024 0.6458388766861978 0.16265336819274934 0.0
H H 0.5701430236536836 0.8025362624329739 0.2054190555632254 0.0
H H 0.5148630751801274 0.4043437259156328 0.3477873453096075 0.0
H H 0.4156004887569879 0.20922094660815263 0.33556383094507075 0.0
H H 0.3536591297298066 0.5867955481714561 0.2056217618696835 0.0
H H 0.12964171210427244 0.5482860940651227 0.2060578531646851 0.0
H H 0.6194535363650445 0.46319497758601297 0.27605719800964534 0.0
H H 0.8815645418219289 0.4708889720620817 0.12314404040604485 0.0
H H 0.44895994886612106 0.6880035790787282 0.7985726950455433 0.0
H H 0.40927445318771105 0.8503357861352163 0.7165418147965119 0.0
H H 0.5515370709688687 0.35420122437008844 0.668837351646256 0.0
H H 0.5488589066338682 0.1370460454714232 0.794557607669362 0.0
H H 0.699494174255764 0.5643232020164088 0.7333010328574551 0.0
H H 0.8822520285963038 0.5469405429696995 0.7663610678550408 0.0
H H 0.3497937178471952 0.3806130766360088 0.7655228054687463 0.0
H H 0.16377138742711678 0.4143802192921918 0.7158079822771909 0.0
Cu Cu 0.49579280020604993 0.48879757517205213 0.04519699748370051 0.0
Si Si 0.5117510298749568 0.5318939424051347 0.4626140007672966 0.0
F F 0.5135649736466353 0.5317122628967035 0.7413517265013145 0.0
F F 0.4559103064360454 0.5078257531586009 0.24868026006255306 0.0
F F 0.5805038365410646 0.5893371364730225 0.5126422117410583 0.0
F F 0.4148194831403547 0.5818715051036417 0.5080529586261141 0.0
F F 0.441117091087125 0.4464075942771681 0.5542768301664068 0.0
F F 0.5808270596955126 0.43212242967911396 0.5398410192649922 0.0
N N 0.4837383842475392 0.3221159414222621 -0.047689289434541524 0.0
N N 0.5203008492566864 0.6189383371498866 0.025595539819896394 0.0
N N 0.6885729177758935 0.5092792587019377 -0.015121656167361289 0.0
N N 0.3388803154906502 0.51088045686616 -0.01873244608385247 0.0
_cell_length_a 13.6316
_cell_length_b 13.6316
_cell_length_c 7.968
_cell_angle_alpha 90.0
_cell_angle_beta 90.0
_cell_angle_gamma 90.0
_symmetry_space_group_name_H-M         'P 1'
_symmetry_Int_Tables_number            1
loop_
_symmetry_equiv_pos_as_xyz
   'x, y, z'
                         
loop_
_atom_site_label
_atom_site_type_symbol
_atom_site_fract_x 
_atom_site_fract_y
_atom_site_fract_z
_atom_site_charge
C C 0.5429641264038381 0.7158987869988109 0.17258694016095458 0.0
C C 0.47410181115303623 0.7508445084284424 0.17114970886013756 0.0
C C 0.43122756631636416 0.35069820889649195 0.12879472787871163 0.0
C C 0.47224544426683845 0.14401202052729423 0.13421245557481654 0.0
C C 0.2680178015543133 0.5054187880850359 0.1558519254509034 0.0
C C 0.22398473485276724 0.5528427397845449 0.07212784545941478 0.0
C C 0.7519290981531098 0.4733424424839689 0.1730276787678437 0.0
C C 0.8126025341223418 0.4596870959994846 0.13536521386525752 0.0
C C 0.4768495963629279 0.7412631192150217 0.8004266775737416 0.0
C C 0.5107546416502201 0.8133815555076067 0.7879730730071942 0.0
C C 0.49981219027074625 0.31288176077385266 0.8905003934365744 0.0
C C 0.6158993516417742 0.23051055928275904 0.8632658201885833 0.0
C C 0.7350822569767639 0.5737783391208792 0.8344150756411901 0.0
C C 0.8348875403792022 0.5309882375229252 0.8630163039167671 0.0
C C 0.3645893885667347 0.4275871201779261 0.885034042681192 0.0
C C 0.18619190180891676 0.457237734376389 0.8777270105371033 0.0
C C 0.5242470271873668 0.13253912530996673 -0.008661294778723426 0.0
C C 0.48656348002211675 0.08913818867789748 -0.03421237971312953 0.0
C C 0.5243345171883859 0.852638128975664 -0.021197424812763096 0.0
C C 0.43191789579564543 0.9783470371702623 0.06814921836108229 0.0
C C 0.8677552083669811 0.4437295643180446 0.013803946809537343 0.0
C C 0.9520999614237846 0.5214887164618333 -0.0020687684891924542 0.0
C C 0.14900887411135955 0.4746128962410538 0.030833995673735532 0.0
C C 0.023997323162390418 0.4326914108530844 0.09924275210245363 0.0
H H 0.5664921264038381 0.672688786998811 0.2805499401609545 0.0
H H 0.49989181115303616 0.7886845084284424 0.2830477088601376 0.0
H H 0.40769956631636417 0.393908208896492 0.2367577278787116 0.0
H H 0.4464554442668384 0.1061730205272942 0.24611045557481653 0.0
H H 0.31122780155431334 0.5289467880850359 0.2638149254509034 0.0
H H 0.18614573485276725 0.5786327397845449 0.18402584545941475 0.0
H H 0.7087190981531098 0.44981444248396896 0.2809906787678436 0.0
H H 0.8504425341223418 0.43389709599948456 0.24726321386525751 0.0
H H 0.45332159636292796 0.6980531192150219 0.6924636775737416 0.0
H H 0.4849646416502201 0.8512215555076067 0.6760750730071942 0.0
H H 0.5233401902707463 0.3560917607738527 0.7825373934365744 0.0
H H 0.6416893516417742 0.19267155928275903 0.7513678201885833 0.0
H H 0.6918722569767639 0.5973063391208792 0.7264520756411901 0.0
H H 0.8727275403792022 0.5567782375229252 0.751118303916767 0.0
H H 0.4077993885667347 0.4040591201779261 0.777071042681192 0.0
H H 0.14835290180891678 0.431447734376389 0.7658290105371033 0.0
Cu Cu 0.47262464817320327 0.4921354740937787 0.046524982846764255 0.0
Si Si 0.4966306445656454 0.5533434845747984 0.5131098378102097 0.0
F F 0.44671206976077216 0.4733373570537753 0.6619466893508034 0.0
F F 0.47147590277741874 0.50454430257174 0.2556118456587488 0.0
F F 0.5367317468888645 0.5580969417134999 0.49117189890941515 0.0
F F 0.43429344925773294 0.5805771014808989 0.5094634280718238 0.0
F F 0.37398497622725746 0.3917940059269814 0.5348918204247799 0.0
F F 0.589808674505771 0.399436894206473 0.5684824982290053 0.0
N N 0.45650595544248285 0.30512305199194656 -0.006333898016946459 0.0
N N 0.4868846201788909 0.6093352648514053 -0.0006046196178501607 0.0
N N 0.6021679390727149 0.4858747318251293 0.01298183992866041 0.0
N N 0.35519883695621773 0.467666149719404 -0.0237242612839769 0.0
_cell_length_a 13.6316
_cell_length_b 13.6316
_cell_length_c 7.968
_cell_angle_alpha 90.0
_cell_angle_beta 90.0
_cell_angle_gamma 90.0
_symmetry_space_group_name_H-M         'P 1'
_symmetry_Int_Tables_number            1
loop_
_symmetry_equiv_pos_as_xyz
   'x, y, z'
                         
loop_
_atom_site_label
_atom_site_type_symbol
_atom_site_fract_x 
_atom_site_fract_y
_atom_site_fract_z
_atom_site_charge
C C 0.45801171840024296 0.7279356472392149 0.06366814172778668 0.0
C C 0.5940318134030657 0.7154242773548142 0.23673646798877604 0.0
C C 0.47731315318365297 0.34356488724907763 0.09866083894507385 0.0
C C 0.49609024563512255 0.16741016685359544 0.061746042711339336 0.0
C C 0.32372244984808957 0.5538538224481336 0.17690658546252544 0.0
C C 0.21631289523157166 0.5588967392799304 0.2195238229045924 0.0
C C 0.7017520414267464 0.5009034572026307 0.15919364324434446 0.0
C C 0.7883286945241428 0.41639330530232604 0.11466713048838906 0.0
C C 0.4396208552043422 0.6544978818561916 0.8628073209475363 0.0
C C 0.48071487629265647 0.8206771483445054 0.8327171205475334 0.0
C C 0.5359132072557293 0.32951918218469306 0.8782752961633697 0.0
C C 0.5179559682395078 0.22980574969325035 0.8047535708118347 0.0
C C 0.7188422153771878 0.5425511590347618 0.8413867031498937 0.0
C C 0.8178021746106051 0.5441443054608941 0.8279724732056749 0.0
C C 0.25142817277613433 0.4486842062128315 0.838362268159315 0.0
C C 0.2408307442709066 0.4680172449499408 0.8136175373610206 0.0
C C 0.48738193814615516 0.18370652333343068 0.03557446853294075 0.0
C C 0.4785004916658247 0.07060429829446822 -0.06578537625240563 0.0
C C 0.5129082574493629 0.8606123179848961 0.023124537055368283 0.0
C C 0.5658306163923635 0.9258788165342712 0.021207966215910437 0.0
C C 0.8726089462815271 0.4991962124575441 -0.02404654192523599 0.0
C C 0.9802634845080788 0.5115626367517305 -0.02462893377839162 0.0
C C 0.1487841630551542 0.5575387018526445 0.04167738959401664 0.0
C C -0.005625895828029893 0.4836390681261026 -0.03868258509706723 0.0
H H 0.48153971840024296 0.6847256472392149 0.17163114172778665 0.0
H H 0.6198218134030655 0.753264277354814 0.348634467988776 0.0
H H 0.453785153183653 0.3867748872490776 0.20662383894507383 0.0
H H 0.4703002456351225 0.12957116685359546 0.17364404271133932 0.0
H H 0.36693244984808965 0.5773818224481335 0.2848695854625254 0.0
H H 0.17847389523157167 0.5846867392799304 0.3314218229045923 0.0
H H 0.6585420414267464 0.47737545720263075 0.2671566432443444 0.0
H H 0.8261686945241428 0.390603305302326 0.22656513048838903 0.0
H H 0.41609285520434225 0.6112878818561918 0.7548443209475363 0.0
H H 0.4549248762926565 0.8585171483445054 0.7208191205475334 0.0
H H 0.5594412072557293 0.37272918218469314 0.7703122961633696 0.0
H H 0.5437459682395078 0.19196674969325037 0.6928555708118347 0.0
H H 0.6756322153771879 0.5660791590347617 0.7334237031498937 0.0
H H 0.8556421746106051 0.5699343054608941 0.7160744732056749 0.0
H H 0.29463817277613447 0.42515620621283157 0.7303992681593149 0.0
H H 0.2029917442709066 0.4422272449499408 0.7017195373610206 0.0
Cu Cu 0.4634630945710843 0.474082664332636 -0.07959712929989866 0.0
Si Si 0.492951903445168 0.4583954321995309 0.518138617314473 0.0
F F 0.5183573562896194 0.5225973326385562 0.7799235703186354 0.0
F F 0.5158834213587772 0.49574998278632104 0.2433127890022902 0.0
F F 0.5794290179748053 0.6121896990629248 0.5254281795455905 0.0
F F 0.4515278967361467 0.6046304807129104 0.4938416036895131 0.0
F F 0.43028611514837534 0.3951829917354513 0.5588593144769569 0.0
F F 0.5812488414713801 0.39333034371102443 0.5931257031548377 0.0
N N 0.5230058779479408 0.41665260777699176 -0.046982391515346486 0.0
N N 0.5105561186280337 0.649580037437828 0.0004683265402225076 0.0
N N 0.637455198768136 0.5027606515045939 0.04450456028993298 0.0
N N 0.3362291716387687 0.49012187703916665 -0.09867150998188881 0.0
