_cell_length_a 13.6316
_cell_length_b 13.6316
_cell_length_c 7.968
_cell_angle_alpha 90.0
_cell_angle_beta 90.0
_cell_angle_gamma 90.0
_symmetry_space_group_name_H-M         'P 1'
_symmetry_Int_Tables_number            1
loop_
_symmetry_equiv_pos_as_xyz
   'x, y, z'
                         
loop_
_atom_site_label
_atom_site_type_symbol
_atom_site_fract_x 
_atom_site_fract_y
_atom_site_fract_z
_atom_site_charge
C C 0.4920919057666841 0.672155241560695 0.046215902111015464 0.0
C C 0.5535840420574474 0.8569704440251156 0.15156027276771653 0.0
C C 0.4559342090555501 0.286819174429988 0.08904643708619644 0.0
C C 0.49247435503628756 0.1919993768389365 0.1785003081469819 0.0
C C 0.2977539554162359 0.528743749584871 0.11764925788974159 0.0
C C 0.247414700518303 0.5472968424966327 0.16156896396290873 0.0
C C 0.6469567493335371 0.4958636820073912 0.09547841094003698 0.0
C C 0.8036380446033048 0.4416358985075526 0.12585891616934755 0.0
C C 0.47341136975453096 0.6223794444579288 0.8486966495066125 0.0
C C 0.5121246019093861 0.8645726854255605 0.8436477689318332 0.0
C C 0.5370260968512788 0.3110555329028089 0.8725036364247778 0.0
C C 0.5658296971113025 0.20118425522928082 0.8441175932598677 0.0
C C 0.6836964001795043 0.5133856383938475 0.7974879705961242 0.0
C C 0.78747545729324 0.5724074931649563 0.8271363487251794 0.0
C C 0.3453548203210797 0.49657672253384283 0.9221766492177568 0.0
C C 0.17313055460515805 0.448872893126347 0.8524819182734625 0.0
C C 0.5417193977320253 0.13863601520672403 0.000404722659093386 0.0
C C 0.43506514706561666 0.06867939813996148 -0.006663802685420037 0.0
C C 0.5326667089463469 0.8615610452781772 -0.0006465622287428283 0.0
C C 0.4849554806846741 0.9041547374123673 0.01807610264961328 0.0
C C 0.8635500464299729 0.49665466528617536 0.021795413656150703 0.0
C C 0.9190539950026184 0.44813265270684133 0.017544561567151052 0.0
C C 0.12310906502969132 0.5073953031862589 -0.004945658268042311 0.0
C C 0.001967099506919215 0.5031378475314493 -0.002035590123972342 0.0
H H 0.5156199057666842 0.628945241560695 0.15417890211101543 0.0
H H 0.5793740420574474 0.8948104440251156 0.2634582727677165 0.0
H H 0.4324062090555501 0.3300291744299881 0.19700943708619642 0.0
H H 0.4666843550362875 0.1541603768389365 0.2903983081469819 0.0
H H 0.340963955416236 0.552271749584871 0.22561225788974157 0.0
H H 0.209575700518303 0.5730868424966327 0.2734669639629087 0.0
H H 0.6037467493335371 0.47233568200739123 0.20344141094003695 0.0
H H 0.8414780446033048 0.41584589850755255 0.23775691616934752 0.0
H H 0.449883369754531 0.5791694444579288 0.7407336495066124 0.0
H H 0.4863346019093861 0.9024126854255605 0.7317497689318332 0.0
H H 0.5605540968512787 0.354265532902809 0.7645406364247777 0.0
H H 0.5916196971113024 0.1633452552292808 0.7322195932598675 0.0
H H 0.6404864001795043 0.5369136383938475 0.689524970596124 0.0
H H 0.82531545729324 0.5981974931649562 0.7152383487251793 0.0
H H 0.3885648203210797 0.47304872253384284 0.8142136492177567 0.0
H H 0.13529155460515804 0.423082893126347 0.7405839182734625 0.0
Cu Cu 0.4508880497828722 0.4822790327746692 0.014382205812387106 0.0
Si Si 0.5058010870440464 0.48544442654078845 0.5505446814408054 0.0
F F 0.46911595269117606 0.47327206385196174 0.6981118460539557 0.0
F F 0.5381196356496728 0.4675705250684084 0.3024271377395419 0.0
F F 0.5983069509517961 0.5956972585781627 0.49766249742317104 0.0
F F 0.43269577778436247 0.5630131924561039 0.5271475036432631 0.0
F F 0.4142783933154028 0.44662136896179117 0.4945131265309397 0.0
F F 0.6065791581764362 0.4670422757082998 0.41636925664136754 0.0
N N 0.4870391949548185 0.35238731940155316 -0.03536541404432732 0.0
N N 0.48326679361588526 0.634351621536226 0.04136680779541846 0.0
N N 0.6487409014045791 0.46684645592684476 0.05471218870081138 0.0
N N 0.37879752067568767 0.45776947660115813 0.020463772205748004 0.0
_cell_length_a 13.6316
_cell_length_b 13.6316
_cell_length_c 7.968
_cell_angle_alpha 90.0
_cell_angle_beta 90.0
_cell_angle_gamma 90.0
_symmetry_space_group_name_H-M         'P 1'
_symmetry_Int_Tables_number            1
loop_
_symmetry_equiv_pos_as_xyz
   'x, y, z'
                         
loop_
_atom_site_label
_atom_site_type_symbol
_atom_site_fract_x 
_atom_site_fract_y
_atom_site_fract_z
_atom_site_charge
C C 0.6266852313176455 0.7394257096138739 0.1148579468372822 0.0
C C 0.534908561798399 0.8102781147416115 0.17163987066935066 0.0
C C 0.4622058189408827 0.27721149144064255 0.08920907414742489 0.0
C C 0.45900709090745273 0.21896785694089865 0.17731860434657734 0.0
C C 0.2801451842220616 0.5515115829939354 0.2194971833548642 0.0
C C 0.2324160538020673 0.543414398510726 0.1073333402322536 0.0
C C 0.6819813901716377 0.46318353070949553 0.1391014845168351 0.0
C C 0.8046230808142367 0.45050285210049673 0.22846559239018138 0.0
C C 0.43640290963112466 0.7020253426419925 0.8519371666685177 0.0
C C 0.4305345630918226 0.836113735463124 0.9033501526147167 0.0
C C 0.5261298336396938 0.30844391670260213 0.8761560919788995 0.0
C C 0.5322835814219857 0.1938919605001341 0.808471499348073 0.0
C C 0.7005303078037438 0.5595939274256627 0.8503865237840199 0.0
C C 0.8297081430502972 0.5136897386238717 0.817917350350061 0.0
C C 0.35591528375751963 0.43542989525527476 0.8078790953098111 0.0
C C 0.2031818926996415 0.46651479279270214 0.8775667922085055 0.0
C C 0.4956927982816394 0.13850703220646204 0.07347832838924268 0.0
C C 0.5052019822395956 -0.0024543417739245846 -0.013326670835210065 0.0
C C 0.5281160346338989 0.8641853123505621 -0.08520225473723092 0.0
C C 0.5302942851577185 1.0008663616069888 0.0671238080348144 0.0
C C 0.8742735938701861 0.5420704575178515 0.002190933601643737 0.0
C C 0.9399460206890586 0.47042180592712346 0.004398230572618642 0.0
C C 0.20097356848501186 0.5356524461790398 -0.02725294818060836 0.0
C C 0.08663487823855738 0.47666578604846055 0.022007603242832366 0.0
H H 0.6502132313176454 0.6962157096138739 0.22282094683728218 0.0
H H 0.5606985617983989 0.8481181147416115 0.28353787066935066 0.0
H H 0.4386778189408827 0.3204214914406426 0.19717207414742485 0.0
H H 0.4332170909074527 0.18112885694089864 0.2892166043465773 0.0
H H 0.3233551842220616 0.5750395829939354 0.3274601833548642 0.0
H H 0.19457705380206733 0.569204398510726 0.2192313402322536 0.0
H H 0.6387713901716378 0.43965553070949565 0.24706448451683508 0.0
H H 0.8424630808142367 0.4247128521004967 0.3403635923901814 0.0
H H 0.4128749096311248 0.6588153426419925 0.7439741666685176 0.0
H H 0.40474456309182255 0.8739537354631239 0.7914521526147167 0.0
H H 0.5496578336396938 0.3516539167026022 0.7681930919788994 0.0
H H 0.5580735814219857 0.15605296050013412 0.6965734993480729 0.0
H H 0.6573203078037438 0.5831219274256627 0.7424235237840199 0.0
H H 0.8675481430502971 0.5394797386238717 0.7060193503500608 0.0
H H 0.3991252837575197 0.4119018952552748 0.6999160953098109 0.0
H H 0.1653428926996415 0.44072479279270216 0.7656687922085055 0.0
Cu Cu 0.48949045513833617 0.4728408342444951 -0.0939875581786536 0.0
Si Si 0.4868976370435798 0.51060231819959 0.5108262089970466 0.0
F F 0.503508301793345 0.5316287469238955 0.748669295808775 0.0
F F 0.48655204191756185 0.5269870740054513 0.2112148051250235 0.0
F F 0.5770833161318477 0.573100642100659 0.49114178712213524 0.0
F F 0.3591755153384995 0.5976650311009316 0.4521938186969485 0.0
F F 0.41963971638578274 0.39859175384491663 0.4446418060094281 0.0
F F 0.6226506414749298 0.4155400676255505 0.520315962581516 0.0
N N 0.5023674794190358 0.3757312006103829 -0.10963255642934903 0.0
N N 0.45957965018302926 0.6384928942462066 0.020569231668189615 0.0
N N 0.6433792111838553 0.5074835176216252 0.02894180830604261 0.0
N N 0.3177346716233631 0.4664635736221232 0.06507669206921345 0.0
_cell_length_a 13.6316
_cell_length_b 13.6316
_cell_length_c 7.968
_cell_angle_alpha 90.0
_cell_angle_beta 90.0
_cell_angle_gamma 90.0
_symmetry_space_group_name_H-M         'P 1'
_symmetry_Int_Tables_number            1
loop_
_symmetry_equiv_pos_as_xyz
   'x, y, z'
                         
loop_
_atom_site_label
_atom_site_type_symbol
_atom_site_fract_x 
_atom_site_fract_y
_atom_site_fract_z
_atom_site_charge
C C 0.47615526787860984 0.7065396045971214 0.1763433733989488 0.0
C C 0.5583179317692006 0.8075201160694944 0.06739319747965271 0.0
C C 0.47588406870120503 0.3216505444475207 0.10473129419114663 0.0
C C 0.47026789791217527 0.19622303903092148 0.1509348356424231 0.0
C C 0.320457084688805 0.604667139831317 0.1448121350706378 0.0
C C 0.18063647435810248 0.5025852231306639 0.14025235458301927 0.0
C C 0.699930377793587 0.4668505961108511 0.08547905024552689 0.0
C C 0.7864734128443394 0.4424485416660367 0.14649849682282662 0.0
C C 0.4604960916993903 0.7150991158710086 0.92435715452671 0.0
C C 0.4440442912106728 0.7177085595884065 0.7121855688966977 0.0
C C 0.5484745178898963 0.2994743210795032 0.8597648614352102 0.0
C C 0.5597345719121511 0.17687701332486624 0.8072690014297029 0.0
C C 0.732118096721846 0.5796630998584019 0.947849877660556 0.0
C C 0.7573949002445644 0.5195834784195109 0.8706675567270993 0.0
C C 0.30261300733591034 0.5058082967920551 0.9567620341386276 0.0
C C 0.23171966507161326 0.4463095881088985 0.9074518815943493 0.0
C C 0.5118061074647149 0.18676669643668775 -0.08368103686896607 0.0
C C 0.5225866183779873 0.05012266344767411 0.007919978142799057 0.0
C C 0.49980470500514024 0.8679703286972086 -0.015164457722092987 0.0
C C 0.47978320915138895 0.9849730389081482 -0.03610900103921318 0.0
C C 0.791374037248332 0.47806126692186773 -0.02240973376833165 0.0
C C 0.9843887769661496 0.45208474693496864 -0.03344486934858781 0.0
C C 0.11491307086174844 0.47068104972886 0.003882764074524567 0.0
C C 0.037480924680075196 0.49316439934365885 0.054178915669869945 0.0
H H 0.49968326787860984 0.6633296045971215 0.2843063733989487 0.0
H H 0.5841079317692006 0.8453601160694943 0.1792911974796527 0.0
H H 0.45235606870120504 0.36486054444752075 0.2126942941911466 0.0
H H 0.44447789791217523 0.1583840390309215 0.26283283564242305 0.0
H H 0.3636670846888051 0.6281951398313169 0.2527751350706378 0.0
H H 0.14279747435810247 0.5283752231306639 0.2521503545830192 0.0
H H 0.656720377793587 0.4433225961108511 0.19344205024552685 0.0
H H 0.8243134128443393 0.41665854166603666 0.25839649682282656 0.0
H H 0.4369680916993903 0.6718891158710086 0.8163941545267099 0.0
H H 0.41825429121067276 0.7555485595884065 0.6002875688966977 0.0
H H 0.5720025178898963 0.3426843210795033 0.7518018614352102 0.0
H H 0.5855245719121511 0.13903801332486626 0.6953710014297029 0.0
H H 0.688908096721846 0.6031910998584019 0.8398868776605559 0.0
H H 0.7952349002445643 0.5453734784195109 0.7587695567270992 0.0
H H 0.34582300733591037 0.482280296792055 0.8487990341386276 0.0
H H 0.19388066507161328 0.42051958810889845 0.7955538815943493 0.0
Cu Cu 0.4873582749051838 0.4912401749629571 -0.004910295599267041 0.0
Si Si 0.49840378840780075 0.472357242401803 0.5073263601387366 0.0
F F 0.5155891678367802 0.5051942219343014 0.7219024799704532 0.0
F F 0.5401049444145262 0.4667687247928705 0.27321057752112105 0.0
F F 0.5920457453997957 0.5565541451312674 0.5159805049856508 0.0
F F 0.41367193191446444 0.5700879437943263 0.4691799379295839 0.0
F F 0.4330758379603205 0.3895802620076038 0.5329652291131779 0.0
F F 0.6243746703079474 0.4191605798101959 0.41634641124462074 0.0
N N 0.5051464484565565 0.3551275897797996 0.042313538519668493 0.0
N N 0.47711823783421276 0.6775234000638136 0.016960721238825836 0.0
N N 0.6299432894360893 0.5154682988829028 -0.028641449493344243 0.0
N N 0.3589552382767184 0.5125694723961144 0.05354429190989845 0.0
_cell_length_a 13.6316
_cell_length_b 13.6316
_cell_length_c 7.968
_cell_angle_alpha 90.0
_cell_angle_beta 90.0
_cell_angle_gamma 90.0
_symmetry_space_group_name_H-M         'P 1'
_symmetry_Int_Tables_number            1
loop_
_symmetry_equiv_pos_as_xyz
   'x, y, z'
                         
loop_
_atom_site_label
_atom_site_type_symbol
_atom_site_fract_x 
_atom_site_fract_y
_atom_site_fract_z
_atom_site_charge
C C 0.6108912576434102 0.6926721645897642 0.08481054751689696 0.0
C C 0.5475571272478337 0.7754410768818516 0.11874105810591451 0.0
C C 0.5100006763548581 0.32773367489389416 0.06821471175885119 0.0
C C 0.4650896463271795 0.20677630070511158 0.0842597272182185 0.0
C C 0.27598539170904457 0.5155124443113117 0.12983821123032369 0.0
C C 0.20049565325728946 0.5168273162136283 0.158437117049302 0.0
C C 0.6585876014582519 0.5133420460873742 0.21413151058017457 0.0
C C 0.7695607053207181 0.4603835861396267 0.17282299138267315 0.0
C C 0.4954566178404981 0.7197561247060015 0.9361566151253999 0.0
C C 0.475604042727998 0.8052089351364156 0.8346835801002035 0.0
C C 0.5195776480037861 0.26334386784587543 0.8895105391265975 0.0
C C 0.5048759097959935 0.23517001234501173 0.8100072076266503 0.0
C C 0.7090738286807025 0.5214585690680952 0.9027991438356366 0.0
C C 0.806125392851673 0.5237969665420578 0.8557431574154019 0.0
C C 0.23930747091543064 0.435815230407775 0.938892558544585 0.0
C C 0.1274497933333271 0.41822920690728316 0.8618507038135265 0.0
C C 0.4962990407806827 0.1774879494115211 -0.008979048452565936 0.0
C C 0.49297115059723223 0.03398022110769655 0.04527158327967252 0.0
C C 0.47795391123487074 0.8199075170609544 -0.06403928025560955 0.0
C C 0.4535735772507649 0.979230891012351 -0.0817299039822855 0.0
C C 0.8809972531273544 0.5024362230059781 -0.09045148520754574 0.0
C C 0.9744390583032639 0.43733839703330435 0.021274429178276294 0.0
C C 0.15991598889525022 0.42613820653698836 0.10890369255452727 0.0
C C 0.004851930619870814 0.4855367541029953 -0.026199364066820715 0.0
H H 0.6344192576434101 0.6494621645897642 0.19277354751689693 0.0
H H 0.5733471272478337 0.8132810768818516 0.2306390581059145 0.0
H H 0.48647267635485814 0.3709436748938942 0.17617771175885114 0.0
H H 0.43929964632717944 0.1689373007051116 0.19615772721821848 0.0
H H 0.3191953917090447 0.5390404443113117 0.23780121123032366 0.0
H H 0.16265665325728948 0.5426173162136283 0.270335117049302 0.0
H H 0.6153776014582519 0.4898140460873742 0.3220945105801746 0.0
H H 0.8074007053207181 0.4345935861396267 0.28472099138267315 0.0
H H 0.4719286178404982 0.6765461247060016 0.8281936151253998 0.0
H H 0.449814042727998 0.8430489351364155 0.7227855801002034 0.0
H H 0.543105648003786 0.30655386784587546 0.7815475391265974 0.0
H H 0.5306659097959935 0.19733101234501174 0.6981092076266503 0.0
H H 0.6658638286807025 0.5449865690680952 0.7948361438356366 0.0
H H 0.8439653928516729 0.5495869665420577 0.7438451574154018 0.0
H H 0.28251747091543067 0.412287230407775 0.830929558544585 0.0
H H 0.08961079333332711 0.3924392069072832 0.7499527038135264 0.0
Cu Cu 0.48498874026395405 0.5491272219081695 -0.015249441020174693 0.0
Si Si 0.4946596288881547 0.47620358796319573 0.5174557001381699 0.0
F F 0.46708437257227103 0.47162151794513857 0.6500281865845452 0.0
F F 0.4740151535241875 0.49163883565942856 0.28029843535254323 0.0
F F 0.5661260695792502 0.5880322620153047 0.4432607214622555 0.0
F F 0.42063659107804086 0.5682861012419071 0.35788321409153506 0.0
F F 0.4208950204172131 0.4394807560770721 0.5054323540255679 0.0
F F 0.5631135437693054 0.44286229618720907 0.5369196255353744 0.0
N N 0.46240329881176817 0.32894279515565644 0.015085774250244122 0.0
N N 0.519415096411965 0.6513895069824257 -0.002057537042366626 0.0
N N 0.6470057433159603 0.48482658609874446 0.06726437137848786 0.0
N N 0.2763959567018835 0.5228506637152225 0.00447692836585061 0.0
_cell_length_a 13.6316
_cell_length_b 13.6316
_cell_length_c 7.968
_cell_angle_alpha 90.0
_cell_angle_beta 90.0
_cell_angle_gamma 90.0
_symmetry_space_group_name_H-M         'P 1'
_symmetry_Int_Tables_number            1
loop_
_symmetry_equiv_pos_as_xyz
   'x, y, z'
                         
loop_
_atom_site_label
_atom_site_type_symbol
_atom_site_fract_x 
_atom_site_fract_y
_atom_site_fract_z
_atom_site_charge
C C 0.5118977707528866 0.7238431606514599 0.13969385342521815 0.0
C C 0.5290423721792703 0.86339811067384 0.2013528909288068 0.0
C C 0.46229432307546015 0.3195721128904363 0.16057854053588555 0.0
C C 0.4803931399050458 0.18088825173674283 0.15150799817232782 0.0
C C 0.2820469871256715 0.5038036949374096 0.17691261320560722 0.0
C C 0.2354930207336569 0.5605555750120587 0.1283193878860981 0.0
C C 0.7054834527476747 0.4653902031466129 0.1274209786611025 0.0
C C 0.771440283781311 0.48363729795761484 0.14780435239798548 0.0
C C 0.4990471574812603 0.7454666444220948 0.8744480707676369 0.0
C C 0.43207774659926496 0.7894509506289678 0.8569809484344738 0.0
C C 0.5068074804795994 0.3314401040659301 0.8837490364982283 0.0
C C 0.4977987228985428 0.20521121104471532 0.8944452119740283 0.0
C C 0.6545569951846226 0.5878171037309387 0.8657201606593974 0.0
C C 0.8080986008647143 0.510771916302427 0.8855838280659597 0.0
C C 0.28763375489378307 0.4276314767725994 0.7935325360292833 0.0
C C 0.15999949266380945 0.43803205246350857 0.8867623228257312 0.0
C C 0.5410778628410662 0.13599172462600578 0.008616602784536945 0.0
C C 0.5686334269896438 0.027633707448710663 0.08496951567219821 0.0
C C 0.5292129649558006 0.81020764788345 -0.04902904058831674 0.0
C C 0.5100804777555714 0.9620730891386202 -0.06192641843222171 0.0
C C 0.8097086803134634 0.47763618012254433 0.05362771781249366 0.0
C C 0.9235470494347177 0.5198769876294794 -0.007518551188130069 0.0
C C 0.18813106528394252 0.4704794453001158 -0.07183521497932656 0.0
C C 0.06006798027518654 0.4686259314150915 -0.06576388507463053 0.0
H H 0.5354257707528864 0.6806331606514601 0.2476568534252181 0.0
H H 0.5548323721792703 0.90123811067384 0.3132508909288067 0.0
H H 0.43876632307546015 0.3627821128904363 0.2685415405358855 0.0
H H 0.45460313990504575 0.14304925173674285 0.2634059981723278 0.0
H H 0.3252569871256716 0.5273316949374095 0.28487561320560717 0.0
H H 0.1976540207336569 0.5863455750120586 0.24021738788609806 0.0
H H 0.6622734527476747 0.4418622031466129 0.23538397866110244 0.0
H H 0.809280283781311 0.4578472979576148 0.25970235239798545 0.0
H H 0.47551915748126034 0.7022566444220948 0.7664850707676368 0.0
H H 0.406287746599265 0.8272909506289677 0.7450829484344738 0.0
H H 0.5303354804795993 0.37465010406593013 0.7757860364982283 0.0
H H 0.5235887228985429 0.16737221104471534 0.7825472119740282 0.0
H H 0.6113469951846227 0.6113451037309386 0.7577571606593972 0.0
H H 0.8459386008647143 0.536561916302427 0.7736858280659596 0.0
H H 0.3308437548937832 0.40410347677259945 0.6855695360292833 0.0
H H 0.12216049266380946 0.4122420524635086 0.7748643228257311 0.0
Cu Cu 0.5226329073051029 0.5198438105033699 0.07129464349662572 0.0
Si Si 0.47804292996196074 0.5027181470150721 0.5286743554331933 0.0
F F 0.49054145944505656 0.5216778265542609 0.7530607769661858 0.0
F F 0.5217126059020364 0.5239109479090831 0.2754465665953059 0.0
F F 0.5683506084537329 0.5714371654892083 0.5303337094556646 0.0
F F 0.41308387680863706 0.5572159538366344 0.43555133196746837 0.0
F F 0.3923774961580859 0.44661112187627167 0.49182290316359273 0.0
F F 0.5493733833908123 0.4503256590124626 0.4715626560587105 0.0
N N 0.5328784516965002 0.37724668351098883 -0.08044594569671319 0.0
N N 0.4355377455688863 0.621841378940374 -0.05594450795568071 0.0
N N 0.6074707334583898 0.5146430117248869 -0.03905100611632084 0.0
N N 0.35975502002923465 0.5273829170884627 0.02772877909007345 0.0
_cell_length_a 13.6316
_cell_length_b 13.6316
_cell_length_c 7.968
_cell_angle_alpha 90.0
_cell_angle_beta 90.0
_cell_angle_gamma 90.0
_symmetry_space_group_name_H-M         'P 1'
_symmetry_Int_Tables_number            1
loop_
_symmetry_equiv_pos_as_xyz
   'x, y, z'
                         
loop_
_atom_site_label
_atom_site_type_symbol
_atom_site_fract_x 
_atom_site_fract_y
_atom_site_fract_z
_atom_site_charge
C C 0.532174153624012 0.7242781895315348 0.20021108295525852 0.0
C C 0.5209013581012358 0.8053517848988321 0.08964924109687077 0.0
C C 0.43409108762792803 0.31493326249342274 0.05355796789856359 0.0
C C 0.4645035334111695 0.21691158548625822 0.19889647827366772 0.0
C C 0.2982068004866044 0.5131022965393779 0.1797398581227912 0.0
C C 0.17004553344750195 0.5351944551332541 0.09962279496297094 0.0
C C 0.7021920211691487 0.49588013922646174 0.07972063957173789 0.0
C C 0.7767834142154347 0.44212855728228573 0.1915954090338182 0.0
C C 0.4170751314218184 0.6810276239704962 0.9024582432892583 0.0
C C 0.47415141063241484 0.8052178658490351 0.8737671345736849 0.0
C C 0.514716885343527 0.2730721499283168 0.8363755243433872 0.0
C C 0.5804888158115982 0.14497143375158814 0.8567557398170409 0.0
C C 0.6942008233461353 0.530584957736595 0.9070114124582122 0.0
C C 0.7888237635534202 0.6010553646371766 0.871412747256239 0.0
C C 0.26154283754877466 0.45860732110145275 0.8772879323333024 0.0
C C 0.19944786077120008 0.47420101608622167 0.8355566200925564 0.0
C C 0.4888869375616512 0.10943827712173669 -0.019534837306353532 0.0
C C 0.5393242903187532 0.07981602503510929 0.12058954599466601 0.0
C C 0.4612516925304995 0.8098542318204228 0.0748096078416724 0.0
C C 0.48774708018347274 0.997292115936385 0.061852577038599664 0.0
C C 0.7232665833614179 0.528464774943473 -0.00605987019014576 0.0
C C 1.002013776379352 0.5659106287985972 -0.20282960879711306 0.0
C C 0.15760913185484085 0.567334135751604 0.09594805536656881 0.0
C C -0.043563093550798425 0.5493437895143054 0.014086175453069703 0.0
H H 0.555702153624012 0.6810681895315348 0.3081740829552585 0.0
H H 0.5466913581012358 0.8431917848988321 0.20154724109687075 0.0
H H 0.41056308762792804 0.35814326249342276 0.16152096789856357 0.0
H H 0.4387135334111695 0.17907258548625823 0.31079447827366774 0.0
H H 0.3414168004866045 0.5366302965393779 0.28770285812279117 0.0
H H 0.13220653344750194 0.5609844551332541 0.2115207949629709 0.0
H H 0.6589820211691487 0.47235213922646174 0.18768363957173784 0.0
H H 0.8146234142154346 0.4163385572822857 0.30349340903381816 0.0
H H 0.3935471314218184 0.6378176239704962 0.7944952432892581 0.0
H H 0.44836141063241486 0.8430578658490351 0.7618691345736849 0.0
H H 0.538244885343527 0.3162821499283169 0.7284125243433871 0.0
H H 0.6062788158115981 0.10713243375158812 0.7448577398170408 0.0
H H 0.6509908233461353 0.554112957736595 0.7990484124582121 0.0
H H 0.8266637635534202 0.6268453646371764 0.7595147472562389 0.0
H H 0.3047528375487748 0.43507932110145286 0.7693249323333022 0.0
H H 0.1616088607712001 0.4484110160862217 0.7236586200925563 0.0
Cu Cu 0.4962449731864906 0.5285989326245546 0.01342402904367936 0.0
Si Si 0.4922368755172611 0.4714332595319799 0.5169044950770837 0.0
F F 0.5165278914323477 0.4904701799703797 0.7155306650201225 0.0
F F 0.48328149964889017 0.5120029395023723 0.285672999802137 0.0
F F 0.5394722129970856 0.5867132281347368 0.468783060323711 0.0
F F 0.39128824924997185 0.5790164589095379 0.501453401521401 0.0
F F 0.39266673476793945 0.43097004072497674 0.5564210153517848 0.0
F F 0.6005095253651205 0.43027132727217315 0.5125372380923654 0.0
N N 0.5223254923235892 0.3475099321405528 -0.0006842224810538995 0.0
N N 0.5048512751202215 0.6502025570446835 0.08610693616968847 0.0
N N 0.5936842226176912 0.47726085363786974 -0.043488915187265026 0.0
N N 0.3665467703257411 0.4762154012440481 0.038077962344645236 0.0
_cell_length_a 13.6316
_cell_length_b 13.6316
_cell_length_c 7.968
_cell_angle_alpha 90.0
_cell_angle_beta 90.0
_cell_angle_gamma 90.0
_symmetry_space_group_name_H-M         'P 1'
_symmetry_Int_Tables_number            1
loop_
_symmetry_equiv_pos_as_xyz
   'x, y, z'
                         
loop_
_atom_site_label
_atom_site_type_symbol
_atom_site_fract_x 
_atom_site_fract_y
_atom_site_fract_z
_atom_site_charge
C C 0.5585914720296647 0.7040021699216585 0.12132878657891573 0.0
C C 0.49111127622738066 0.7615246789546235 0.1090029128436317 0.0
C C 0.5052025675528302 0.32099262639199055 0.13199248830524457 0.0
C C 0.44539920239338415 0.22505242304334025 0.19924385307656964 0.0
C C 0.22378256171892436 0.5116155784568663 0.06248131285028334 0.0
C C 0.18067087153843306 0.5011404787644969 0.16145765293548026 0.0
C C 0.6565400814249707 0.46068306440073986 0.13374706989862223 0.0
C C 0.7933677039095851 0.48202397625758264 0.12512208567659613 0.0
C C 0.4568731528839487 0.720985393273569 0.8203578709005739 0.0
C C 0.4779235093657449 0.8322336177440333 0.8768412711005926 0.0
C C 0.508880790164088 0.2851089884386519 0.8453602629762452 0.0
C C 0.5567238227834628 0.203580217160564 0.7984363398551306 0.0
C C 0.6265868397074492 0.50908831949118 0.8321265179514463 0.0
C C 0.8110540551106181 0.4793603869986167 0.8490731927801762 0.0
C C 0.31340421874647695 0.47630606629990524 0.7735387424189261 0.0
C C 0.116322671089062 0.48773698979773095 0.7814719826735667 0.0
C C 0.47148491059712444 0.0971064361099061 0.04214896477641666 0.0
C C 0.4890306721657939 0.06464248293100158 0.06317864565971691 0.0
C C 0.5083657077633634 0.8574543450298409 0.03986320731438756 0.0
C C 0.5064225894415253 0.9334388031975279 0.019319373530932587 0.0
C C 0.8551796610668124 0.4731537202734403 -0.004796337191083238 0.0
C C 0.9998354062544864 0.4499568398242981 0.06407805889524149 0.0
C C 0.162677130010727 0.5276569297404086 -0.009004762381794096 0.0
C C 0.07036145441433311 0.5004031995543413 -0.012806441959266866 0.0
H H 0.5821194720296647 0.6607921699216586 0.2292917865789157 0.0
H H 0.5169012762273807 0.7993646789546234 0.2209009128436317 0.0
H H 0.4816745675528302 0.3642026263919906 0.23995548830524455 0.0
H H 0.4196092023933841 0.18721342304334024 0.3111418530765696 0.0
H H 0.2669925617189244 0.5351435784568663 0.1704443128502833 0.0
H H 0.14283187153843305 0.5269304787644968 0.27335565293548025 0.0
H H 0.6133300814249707 0.43715506440073987 0.2417100698986222 0.0
H H 0.8312077039095851 0.4562339762575826 0.23702008567659613 0.0
H H 0.43334515288394876 0.6777753932735691 0.7123948709005737 0.0
H H 0.4521335093657449 0.8700736177440332 0.7649432711005926 0.0
H H 0.532408790164088 0.32831898843865204 0.7373972629762451 0.0
H H 0.5825138227834626 0.165741217160564 0.6865383398551306 0.0
H H 0.5833768397074492 0.53261631949118 0.7241635179514463 0.0
H H 0.8488940551106181 0.5051503869986167 0.7371751927801762 0.0
H H 0.35661421874647703 0.45277806629990525 0.665575742418926 0.0
H H 0.07848367108906201 0.46194698979773097 0.6695739826735666 0.0
Cu Cu 0.49621803613927556 0.4964312498631363 -0.009369592745683317 0.0
Si Si 0.526594113926811 0.5046717362152026 0.46206498427908976 0.0
F F 0.46333791950203324 0.4859902539959346 0.7132790616681114 0.0
F F 0.4666561177704587 0.50251084283685 0.3765529605948363 0.0
F F 0.5796204191017437 0.6324602329112566 0.5156471788284668 0.0
F F 0.3871259504215695 0.5576024025820192 0.5623095651111868 0.0
F F 0.33811348220113013 0.4739974300847305 0.5017963951128446 0.0
F F 0.5847636616155409 0.43090702837698136 0.49856966867817626 0.0
N N 0.5578561391445896 0.3319183902853518 0.004240436139006824 0.0
N N 0.4927561898667269 0.6675980195245435 -0.019442276924714626 0.0
N N 0.6815420134504482 0.4689806811077166 -0.06544745742687873 0.0
N N 0.3303982712059505 0.5013008093592837 0.05505173433941959 0.0
