_cell_length_a 13.6316
_cell_length_b 13.6316
_cell_length_c 7.968
_cell_angle_alpha 90.0
_cell_angle_beta 90.0
_cell_angle_gamma 90.0
_symmetry_space_group_name_H-M         'P 1'
_symmetry_Int_Tables_number            1
loop_
_symmetry_equiv_pos_as_xyz
   'x, y, z'
                         
loop_
_atom_site_label
_atom_site_type_symbol
_atom_site_fract_x 
_atom_site_fract_y
_atom_site_fract_z
_atom_site_charge
C C 0.5399079716832089 0.7035963986680956 0.16132946617278004 0.0
C C 0.5038720914664451 0.8066751347240495 0.16277586013372822 0.0
C C 0.5159858290647654 0.26967286290045334 0.11538082536026067 0.0
C C 0.4347911371686509 0.21160351586710466 0.14465083323820171 0.0
C C 0.28350819411691014 0.5242692950420561 0.19470778753906634 0.0
C C 0.13891050618045775 0.4958633102799156 0.12852052567504454 0.0
C C 0.7025670948747842 0.4757867206575921 0.20090569914337517 0.0
C C 0.8100491580848469 0.4763643890205191 0.1132898895298037 0.0
C C 0.46638457734673405 0.6825326987071372 0.9789758380084006 0.0
C C 0.4557681812590684 0.7612920137399641 0.8064111181789974 0.0
C C 0.48968412165777564 0.340392411902915 0.8666296775858843 0.0
C C 0.5730072185289007 0.19435211932360427 0.7392870676390284 0.0
C C 0.6387030345557252 0.5391965901492622 0.8683208102733085 0.0
C C 0.8458334512548425 0.5073279637366792 0.8451821737502279 0.0
C C 0.29050344652890103 0.44728673002006714 0.9115708108810678 0.0
C C 0.19613539770097158 0.4716224749496754 0.8494111019321703 0.0
C C 0.5067128913770144 0.1647478499519943 0.1036192349957067 0.0
C C 0.5437942717340114 0.01210072073323401 0.026976998609142773 0.0
C C 0.4672292066795821 0.8509992171780487 0.09102301991869775 0.0
C C 0.45570946327158024 0.8759825324105922 -0.0378284358692066 0.0
C C 0.8158305623435291 0.4642906840310206 0.01918123640981426 0.0
C C 0.9018458152566009 0.5020702611262661 -0.11885254551221118 0.0
C C 0.15009767007145988 0.516533412759418 0.04757649285166091 0.0
C C -0.03001271332201219 0.5327222424717921 -0.02183680208051168 0.0
H H 0.5634359716832089 0.6603863986680957 0.26929246617278 0.0
H H 0.529662091466445 0.8445151347240495 0.2746738601337282 0.0
H H 0.4924578290647655 0.31288286290045336 0.22334382536026065 0.0
H H 0.4090011371686509 0.17376451586710467 0.2565488332382017 0.0
H H 0.3267181941169102 0.5477972950420561 0.3026707875390663 0.0
H H 0.10107150618045775 0.5216533102799156 0.24041852567504454 0.0
H H 0.6593570948747842 0.4522587206575921 0.30886869914337517 0.0
H H 0.8478891580848469 0.45057438902051905 0.22518788952980368 0.0
H H 0.4428565773467341 0.6393226987071372 0.8710128380084006 0.0
H H 0.4299781812590684 0.7991320137399641 0.6945131181789973 0.0
H H 0.5132121216577756 0.3836024119029151 0.7586666775858842 0.0
H H 0.5987972185289007 0.15651311932360426 0.6273890676390284 0.0
H H 0.5954930345557252 0.5627245901492622 0.7603578102733084 0.0
H H 0.8836734512548428 0.5331179637366792 0.7332841737502278 0.0
H H 0.33371344652890106 0.42375873002006714 0.8036078108810677 0.0
H H 0.1582963977009716 0.44583247494967543 0.7375131019321702 0.0
Cu Cu 0.5132764534420928 0.5431592500290203 -0.08371102128328389 0.0
Si Si 0.4978671589693774 0.4775561109722187 0.4658325645615189 0.0
F F 0.5019245032578364 0.4983084925167717 0.7574262089197029 0.0
F F 0.4985075222576342 0.5304930619414687 0.23551134432600074 0.0
F F 0.6097334627090732 0.5642557574024295 0.43171760279250615 0.0
F F 0.41412422785130804 0.6088496454675044 0.5347456100877467 0.0
F F 0.4099368250072768 0.4465679515093027 0.5270811608682273 0.0
F F 0.5616749063348223 0.4388558837100884 0.4898248139381555 0.0
N N 0.4775592556058698 0.39101000671865477 -0.027947566920999097 0.0
N N 0.47074628106457334 0.654593467667336 0.012047731099322516 0.0
N N 0.6023056886620555 0.5230208168670856 -0.13537510345535053 0.0
N N 0.3728208165301924 0.4964399047276542 -0.015302307629540714 0.0
_cell_length_a 13.6316
_cell_length_b 13.6316
_cell_length_c 7.968
_cell_angle_alpha 90.0
_cell_angle_beta 90.0
_cell_angle_gamma 90.0
_symmetry_space_group_name_H-M         'P 1'
_symmetry_Int_Tables_number            1
loop_
_symmetry_equiv_pos_as_xyz
   'x, y, z'
                         
loop_
_atom_site_label
_atom_site_type_symbol
_atom_site_fract_x 
_atom_site_fract_y
_atom_site_fract_z
_atom_site_charge
C C 0.5233351229536607 0.681299560117287 0.08730922927899054 0.0
C C 0.5433310481903386 0.8223890834761439 0.11154916473130311 0.0
C C 0.4344824081472702 0.27004299325450437 0.2497393548030577 0.0
C C 0.4739448496222902 0.20569398597408833 0.21335173222566683 0.0
C C 0.32904901394285896 0.5353054586303115 0.16895169533906876 0.0
C C 0.18715092712967354 0.5243180284078802 0.15708874313951932 0.0
C C 0.6964668852686335 0.43364774740574963 0.11944145946027135 0.0
C C 0.7878654614572919 0.45807977259811095 0.15390084290799314 0.0
C C 0.48309461302847323 0.662174001259376 0.7264381923525554 0.0
C C 0.478527427207457 0.7926895640690697 0.8122114629770874 0.0
C C 0.5389299278174638 0.3094325798596573 0.8072584182898758 0.0
C C 0.5171810735732087 0.27907923644096677 0.8209210103765503 0.0
C C 0.7046117466875416 0.48018819983268357 0.9692988147110125 0.0
C C 0.7913849552272941 0.5512098597242053 0.9315511540584815 0.0
C C 0.2825101200917769 0.4612522619208809 0.9015860265620866 0.0
C C 0.2410880463767673 0.4858252807759731 0.9461776673524845 0.0
C C 0.4471101544727519 0.1258340893067575 0.009209397133335734 0.0
C C 0.5320586167025345 0.03546887183745923 -0.008436984292048273 0.0
C C 0.48234403963633227 0.8968046025441512 0.06157181804570934 0.0
C C 0.42159091577225905 0.9644936757283585 -0.002849683410665963 0.0
C C 0.8214035197345609 0.5187683376859276 -0.04756562852357155 0.0
C C 0.9303670507761442 0.4537696529716118 0.03870941430399163 0.0
C C 0.0970750007942619 0.5072145513443229 -0.011089161550097627 0.0
C C 0.0813122919795232 0.5214393659000903 -0.04328553646531193 0.0
H H 0.5468631229536607 0.6380895601172871 0.19527222927899052 0.0
H H 0.5691210481903386 0.8602290834761439 0.2234471647313031 0.0
H H 0.4109544081472702 0.31325299325450434 0.3577023548030577 0.0
H H 0.4481548496222902 0.16785498597408832 0.32524973222566683 0.0
H H 0.37225901394285904 0.5588334586303115 0.2769146953390687 0.0
H H 0.14931192712967356 0.5501080284078802 0.26898674313951926 0.0
H H 0.6532568852686336 0.41011974740574964 0.22740445946027132 0.0
H H 0.8257054614572918 0.4322897725981109 0.2657988429079931 0.0
H H 0.45956661302847324 0.618964001259376 0.6184751923525552 0.0
H H 0.452737427207457 0.8305295640690696 0.7003134629770873 0.0
H H 0.5624579278174638 0.35264257985965736 0.6992954182898757 0.0
H H 0.5429710735732087 0.2412402364409668 0.7090230103765502 0.0
H H 0.6614017466875416 0.5037161998326836 0.8613358147110124 0.0
H H 0.8292249552272941 0.5769998597242053 0.8196531540584815 0.0
H H 0.325720120091777 0.43772426192088093 0.7936230265620866 0.0
H H 0.2032490463767673 0.46003528077597305 0.8342796673524845 0.0
Cu Cu 0.4970663348911335 0.482061587421389 -0.06094814270344759 0.0
Si Si 0.48529426243200535 0.5463986427590983 0.5333664906933538 0.0
F F 0.5020500839073223 0.5078214122077949 0.7382983382400569 0.0
F F 0.5347220442773163 0.490837908042722 0.3119330479585025 0.0
F F 0.6122378710193427 0.5818735927514199 0.4472718578262812 0.0
F F 0.4050240348416903 0.5864747961486165 0.5076966654130723 0.0
F F 0.44122059763228916 0.4111929509555486 0.3322967718006458 0.0
F F 0.5766932222625332 0.4225182792515419 0.4680812900312821 0.0
N N 0.5025484632548355 0.3141236438973404 0.008399915067728773 0.0
N N 0.5098459779648212 0.6627466217632467 0.02409530445226902 0.0
N N 0.6405228123985932 0.5357605375182845 0.0303595996151579 0.0
N N 0.29533860796736056 0.5539243690160621 -0.07926328493222291 0.0
_cell_length_a 13.6316
_cell_length_b 13.6316
_cell_length_c 7.968
_cell_angle_alpha 90.0
_cell_angle_beta 90.0
_cell_angle_gamma 90.0
_symmetry_space_group_name_H-M         'P 1'
_symmetry_Int_Tables_number            1
loop_
_symmetry_equiv_pos_as_xyz
   'x, y, z'
                         
loop_
_atom_site_label
_atom_site_type_symbol
_atom_site_fract_x 
_atom_site_fract_y
_atom_site_fract_z
_atom_site_charge
C C 0.5109699950536144 0.688901853865729 0.11442324680816894 0.0
C C 0.5247115680836214 0.7696534609286242 0.0894096508223761 0.0
C C 0.4576407130204963 0.27640434115052026 0.12480938762972264 0.0
C C 0.49187183984455707 0.1920318409984169 0.20691850956569113 0.0
C C 0.3222914249240101 0.5623190548702369 0.1647979291306904 0.0
C C 0.1741329774355896 0.5282545048981642 0.12171070507193424 0.0
C C 0.7017129668156562 0.5398613604508521 0.13190658331197502 0.0
C C 0.8406616045256275 0.468947711385655 0.20797542405925026 0.0
C C 0.4830668323196188 0.7070474712602485 0.8610351347079048 0.0
C C 0.4494063780555784 0.8079051569887435 0.9128884471674338 0.0
C C 0.550282091396621 0.22449095471210853 0.8211787047436284 0.0
C C 0.5444094763178312 0.18433869804182415 0.8178600920787817 0.0
C C 0.7071124324635512 0.5716740121996275 0.8446201341339954 0.0
C C 0.8196691882713322 0.5371760037853138 0.9879550704767075 0.0
C C 0.3355574537926517 0.472220689796425 0.8017072325938239 0.0
C C 0.2118621348160709 0.4319279445045894 0.8726873682429118 0.0
C C 0.5224108457337059 0.14374279741543472 -0.012916544639814887 0.0
C C 0.5388182077105047 0.027441381282672546 0.07856578990912097 0.0
C C 0.45712958221574984 0.8535612106500287 -0.0063201946646494695 0.0
C C 0.508135452574852 0.9801471743143952 0.11259898293770669 0.0
C C 0.8329611219675596 0.5470069287718448 -0.02340277581788804 0.0
C C 0.994736250539122 0.5242100493635069 -0.10940480234215624 0.0
C C 0.0949644113934719 0.4700761235247171 0.01587063177800315 0.0
C C 0.066296593217315 0.5278395171125845 0.05455674868498855 0.0
H H 0.5344979950536145 0.645691853865729 0.2223862468081689 0.0
H H 0.5505015680836214 0.8074934609286242 0.2013076508223761 0.0
H H 0.4341127130204963 0.3196143411505203 0.23277238762972263 0.0
H H 0.46608183984455703 0.1541928409984169 0.31881650956569113 0.0
H H 0.36550142492401017 0.5858470548702369 0.2727609291306904 0.0
H H 0.1362939774355896 0.5540445048981641 0.2336087050719342 0.0
H H 0.6585029668156562 0.5163333604508521 0.239869583311975 0.0
H H 0.8785016045256275 0.44315771138565496 0.3198734240592503 0.0
H H 0.45953883231961884 0.6638374712602485 0.7530721347079047 0.0
H H 0.4236163780555784 0.8457451569887435 0.8009904471674337 0.0
H H 0.5738100913966209 0.2677009547121086 0.7132157047436284 0.0
H H 0.5701994763178312 0.14649969804182414 0.7059620920787817 0.0
H H 0.6639024324635512 0.5952020121996275 0.7366571341339954 0.0
H H 0.8575091882713322 0.5629660037853138 0.8760570704767074 0.0
H H 0.37876745379265186 0.44869268979642507 0.6937442325938238 0.0
H H 0.17402313481607093 0.4061379445045894 0.7607893682429118 0.0
Cu Cu 0.5324513100728294 0.45834031259441305 0.020089434588389025 0.0
Si Si 0.4420505881503891 0.4905683909396603 0.4601903903537886 0.0
F F 0.5110897051434808 0.4544435319424899 0.6596902880530962 0.0
F F 0.49224073664688167 0.5296523647451454 0.2580005520674618 0.0
F F 0.5464347608231614 0.5926685504035668 0.48832988498234337 0.0
F F 0.40119889302770134 0.6122749199001813 0.4637096674801971 0.0
F F 0.4063679974590819 0.4539269456951002 0.48976080076842626 0.0
F F 0.5788729603019813 0.3803540597818023 0.533121858525999 0.0
N N 0.5011026048628054 0.35326923624675055 -0.037178233279847414 0.0
N N 0.5177981862274068 0.6435244598102596 0.009722269489845501 0.0
N N 0.6435919063832115 0.5732968236064931 -0.04408765271422049 0.0
N N 0.3707914624319157 0.4920860679432331 0.06503035410466347 0.0
_cell_length_a 13.6316
_cell_length_b 13.6316
_cell_length_c 7.968
_cell_angle_alpha 90.0
_cell_angle_beta 90.0
_cell_angle_gamma 90.0
_symmetry_space_group_name_H-M         'P 1'
_symmetry_Int_Tables_number            1
loop_
_symmetry_equiv_pos_as_xyz
   'x, y, z'
                         
loop_
_atom_site_label
_atom_site_type_symbol
_atom_site_fract_x 
_atom_site_fract_y
_atom_site_fract_z
_atom_site_charge
C C 0.540552591920009 0.7211746879527261 0.1447522134322166 0.0
C C 0.522618383750071 0.8034310869657749 0.04824568403236148 0.0
C C 0.4799435523326801 0.2754931245683712 0.0960932670723064 0.0
C C 0.5046035665869884 0.17494380091139222 0.11750175844909598 0.0
C C 0.35374922783092344 0.5413126373227314 0.08510674813912775 0.0
C C 0.22299692232025978 0.5141272252324017 0.16638740055802645 0.0
C C 0.7399745318320788 0.4958821174647899 0.09652277725861146 0.0
C C 0.8559033656515761 0.40808270254924434 0.13677988917145964 0.0
C C 0.49536889311054705 0.6955915939895934 0.8695104763173467 0.0
C C 0.47416620314540225 0.8587220893915255 0.966723123896799 0.0
C C 0.5114287596754667 0.2859994358148542 0.8506910940061733 0.0
C C 0.5357193184922098 0.19952922649320498 0.8188343431053975 0.0
C C 0.7322172647206491 0.5048953328843244 0.9081071732221754 0.0
C C 0.8082760917842521 0.5634842362908775 0.9008366910837153 0.0
C C 0.35825423923438277 0.4494924382108257 0.8159615256558728 0.0
C C 0.21249514787183688 0.4458550223137386 0.9491797360922923 0.0
C C 0.43535630562268257 0.15271315290072535 -0.09114530454107672 0.0
C C 0.5612812332605025 0.11142164438314527 0.05406012524584885 0.0
C C 0.541042417282545 0.9117712124194214 -0.0716299147288948 0.0
C C 0.5243148117601275 0.9815331905246888 0.05696441761593455 0.0
C C 0.8188234856051748 0.5108320017809472 0.11574410747608627 0.0
C C 0.9687132795223395 0.4501274085161458 0.028327150812738042 0.0
C C 0.14289731514333306 0.5082510320977862 0.07247205261659842 0.0
C C -0.000590494961149343 0.4761976610885968 -0.011076038360265134 0.0
H H 0.564080591920009 0.6779646879527261 0.25271521343221653 0.0
H H 0.548408383750071 0.8412710869657749 0.16014368403236146 0.0
H H 0.4564155523326801 0.3187031245683712 0.20405626707230637 0.0
H H 0.47881356658698837 0.13710480091139224 0.22939975844909596 0.0
H H 0.3969592278309235 0.5648406373227313 0.19306974813912772 0.0
H H 0.1851579223202598 0.5399172252324017 0.2782854005580265 0.0
H H 0.696764531832079 0.4723541174647899 0.20448577725861142 0.0
H H 0.8937433656515761 0.3822927025492443 0.2486778891714596 0.0
H H 0.4718408931105471 0.6523815939895935 0.7615474763173465 0.0
H H 0.4483762031454022 0.8965620893915255 0.854825123896799 0.0
H H 0.5349567596754667 0.3292094358148543 0.7427280940061732 0.0
H H 0.5615093184922098 0.16169022649320497 0.7069363431053974 0.0
H H 0.6890072647206491 0.5284233328843244 0.8001441732221753 0.0
H H 0.8461160917842521 0.5892742362908775 0.7889386910837153 0.0
H H 0.40146423923438285 0.42596443821082575 0.7079985256558727 0.0
H H 0.17465614787183686 0.42006502231373855 0.8372817360922923 0.0
Cu Cu 0.5143376290570263 0.48266553147478575 0.02021314675319773 0.0
Si Si 0.4754382891063946 0.5016411693580194 0.4967682991437557 0.0
F F 0.5395979005220042 0.5244093382924275 0.7970553536498394 0.0
F F 0.5222697125558247 0.49082864925129555 0.2855564407793447 0.0
F F 0.5715108003857418 0.5834625216693935 0.5401058740438175 0.0
F F 0.4257493139784838 0.5974151962226111 0.49480451997050623 0.0
F F 0.40695241374962465 0.4456700470095423 0.5837646597929522 0.0
F F 0.5897306764410047 0.38936417922747685 0.4909453214293512 0.0
N N 0.496668237670376 0.3765964367670614 -0.009012411511329272 0.0
N N 0.47355607489739693 0.7035491144806137 -0.007015089408757797 0.0
N N 0.6826469844199448 0.4726201335233297 0.07483004718195597 0.0
N N 0.3296101136151761 0.5045923111611789 -0.016903475058006982 0.0
_cell_length_a 13.6316
_cell_length_b 13.6316
_cell_length_c 7.968
_cell_angle_alpha 90.0
_cell_angle_beta 90.0
_cell_angle_gamma 90.0
_symmetry_space_group_name_H-M         'P 1'
_symmetry_Int_Tables_number            1
loop_
_symmetry_equiv_pos_as_xyz
   'x, y, z'
                         
loop_
_atom_site_label
_atom_site_type_symbol
_atom_site_fract_x 
_atom_site_fract_y
_atom_site_fract_z
_atom_site_charge
C C 0.5839048230270354 0.7103218391713833 0.11743519111599206 0.0
C C 0.5901015515828831 0.7802337420633247 0.10579678214003135 0.0
C C 0.45752878943750225 0.31179537620201697 0.13243850921320288 0.0
C C 0.5304122474752757 0.2118938389252906 0.3171766893579419 0.0
C C 0.2989211623564131 0.5541939167231895 0.18841195663420163 0.0
C C 0.20559558445087633 0.5420361082070945 0.17957655157996527 0.0
C C 0.7101724510337383 0.39088401590409305 0.2187243091766179 0.0
C C 0.8172176082715408 0.4391924845043982 0.13868861341168057 0.0
C C 0.48334239507235577 0.7238089242916258 0.7011799508372696 0.0
C C 0.4659302804166597 0.7275633764103605 0.7985933239677901 0.0
C C 0.5592282899529356 0.28490060748140006 0.7906911379996596 0.0
C C 0.5622333059245118 0.1689974114826928 0.9245441768443337 0.0
C C 0.7329665595321272 0.568337682005665 0.843441045275548 0.0
C C 0.7227724153871541 0.4886090844994851 0.8297425966094631 0.0
C C 0.28595227414875773 0.4694039151355934 0.9044454305072086 0.0
C C 0.16169612929680927 0.48870427046528175 0.7639713654646925 0.0
C C 0.47749401760575083 0.13508427653035984 0.020621649817824272 0.0
C C 0.4604921752546119 0.033536202276186325 -0.0771986600348823 0.0
C C 0.47809722631720475 0.8778461089328504 0.0836008561583756 0.0
C C 0.5112505980083409 0.913487336185484 -0.007819878761179495 0.0
C C 0.8432525419257577 0.5418773830979411 -0.08144290249351933 0.0
C C 0.9462965400234632 0.4658960006401773 -0.13353904021856813 0.0
C C 0.14985901370868973 0.4856905578086145 -0.03450939649819677 0.0
C C 0.02662051814544325 0.49332927531087567 -0.023484541585463613 0.0
H H 0.6074328230270354 0.6671118391713834 0.22539819111599202 0.0
H H 0.615891551582883 0.8180737420633247 0.21769478214003132 0.0
H H 0.43400078943750225 0.355005376202017 0.24040150921320286 0.0
H H 0.5046222474752756 0.17405483892529058 0.4290746893579419 0.0
H H 0.34213116235641317 0.5777219167231895 0.2963749566342016 0.0
H H 0.16775658445087635 0.5678261082070944 0.2914745515799652 0.0
H H 0.6669624510337383 0.3673560159040931 0.32668730917661787 0.0
H H 0.8550576082715408 0.41340248450439815 0.25058661341168054 0.0
H H 0.45981439507235583 0.6805989242916258 0.5932169508372696 0.0
H H 0.4401402804166597 0.7654033764103607 0.6866953239677901 0.0
H H 0.5827562899529356 0.3281106074814002 0.6827281379996595 0.0
H H 0.5880233059245117 0.1311584114826928 0.8126461768443336 0.0
H H 0.6897565595321272 0.5918656820056649 0.7354780452755478 0.0
H H 0.7606124153871541 0.5143990844994851 0.7178445966094631 0.0
H H 0.3291622741487578 0.44587591513559344 0.7964824305072086 0.0
H H 0.12385712929680928 0.4629142704652817 0.6520733654646924 0.0
Cu Cu 0.4698859618390258 0.495534593268069 0.040948593748152615 0.0
Si Si 0.4949732231630104 0.5043004122149666 0.5274909183034353 0.0
F F 0.5044916966323424 0.5050718268294272 0.6911104184771273 0.0
F F 0.5371914131520652 0.5347437266857042 0.2256697655979884 0.0
F F 0.6279759341628371 0.603671345615518 0.49027590540227606 0.0
F F 0.3926433508997691 0.6140946767121366 0.4476657199586183 0.0
F F 0.3582350638282435 0.4028174462760273 0.5431939937634326 0.0
F F 0.5226281834158829 0.40982351087332614 0.5452002301476333 0.0
N N 0.48381733146169653 0.316027809686279 -0.00865855774500333 0.0
N N 0.5266263425360905 0.65259132873216 0.01310437286108598 0.0
N N 0.6376904346238538 0.4926822166445537 -0.04564340986017861 0.0
N N 0.35069859285353894 0.5176678403746606 -0.10549956222982192 0.0
_cell_length_a 13.6316
_cell_length_b 13.6316
_cell_length_c 7.968
_cell_angle_alpha 90.0
_cell_angle_beta 90.0
_cell_angle_gamma 90.0
_symmetry_space_group_name_H-M         'P 1'
_symmetry_Int_Tables_number            1
loop_
_symmetry_equiv_pos_as_xyz
   'x, y, z'
                         
loop_
_atom_site_label
_atom_site_type_symbol
_atom_site_fract_x 
_atom_site_fract_y
_atom_site_fract_z
_atom_site_charge
C C 0.5500864688848781 0.7502744895404764 0.13134393254161994 0.0
C C 0.5168259590614551 0.7794535909292108 0.08999379316748471 0.0
C C 0.49407178114081013 0.31773126622708364 0.1398374714208107 0.0
C C 0.4408991009971398 0.21925196020952 0.12978753996197856 0.0
C C 0.3079365132319429 0.5452704101049632 0.056462573446480896 0.0
C C 0.21712253085009905 0.5128283567286123 0.10509725380095561 0.0
C C 0.6894094412800138 0.42234923518694845 0.09201683842023653 0.0
C C 0.7836076512909572 0.4437029518079984 0.14016770117293045 0.0
C C 0.4889788239861702 0.7454136943238089 0.8376826795564043 0.0
C C 0.44782120903993616 0.7993190331719598 0.9144798025380649 0.0
C C 0.5735793853796389 0.2618135013488787 0.8518246660834617 0.0
C C 0.534769585409464 0.2557032216896618 0.8485511342700999 0.0
C C 0.6537831530466587 0.5368097749292897 0.8788132611313166 0.0
C C 0.855290583234843 0.5741005245414017 0.8601177632847881 0.0
C C 0.23186048935752868 0.49571732210086095 0.7826135810912528 0.0
C C 0.2621434613931212 0.4595241068321138 0.8579915720745108 0.0
C C 0.4646061869273457 0.1469379354139794 0.15727769305622827 0.0
C C 0.5855495245997507 0.004764877229962115 -0.07850931971512067 0.0
C C 0.48761162973353717 0.8752981917309703 -0.030932584775702023 0.0
C C 0.3807354517644308 0.9227702561575043 -0.0936500585542717 0.0
C C 0.8575158774288827 0.5479330146487724 0.045187097653800086 0.0
C C 0.9754620175495812 0.4916970730292918 -0.015697779801559373 0.0
C C 0.14805388584412724 0.5399713265584078 -0.03958550321203556 0.0
C C 0.030946353096005297 0.503714565636245 0.017961072429558602 0.0
H H 0.5736144688848781 0.7070644895404764 0.23930693254161992 0.0
H H 0.5426159590614551 0.8172935909292108 0.20189179316748468 0.0
H H 0.47054378114081014 0.36094126622708367 0.24780047142081066 0.0
H H 0.41510910099713977 0.18141296020952002 0.24168553996197856 0.0
H H 0.35114651323194296 0.5687984101049632 0.16442557344648084 0.0
H H 0.17928353085009904 0.5386183567286122 0.21699525380095558 0.0
H H 0.6461994412800138 0.3988212351869484 0.1999798384202365 0.0
H H 0.8214476512909572 0.41791295180799837 0.2520657011729304 0.0
H H 0.4654508239861703 0.7022036943238089 0.7297196795564042 0.0
H H 0.42203120903993613 0.8371590331719598 0.8025818025380649 0.0
H H 0.597107385379639 0.3050235013488788 0.7438616660834617 0.0
H H 0.5605595854094639 0.21786422168966188 0.7366531342700998 0.0
H H 0.6105731530466588 0.5603377749292897 0.7708502611313166 0.0
H H 0.893130583234843 0.5998905245414017 0.748219763284788 0.0
H H 0.2750704893575287 0.47218932210086106 0.6746505810912526 0.0
H H 0.22430446139312127 0.43373410683211383 0.7460935720745108 0.0
Cu Cu 0.4789955909428089 0.5097983077850256 0.03694879310464513 0.0
Si Si 0.5084533193156409 0.5115777445956632 0.47683590592060465 0.0
F F 0.5012615087708712 0.5007531910299744 0.6634994842666824 0.0
F F 0.42268309645056984 0.45124731082782354 0.27225074506887453 0.0
F F 0.5692395248503208 0.5592327894909913 0.42108523079548504 0.0
F F 0.42013766444791684 0.5945087986864683 0.4395006801939594 0.0
F F 0.36103324708321965 0.4194359412434365 0.5233268329170916 0.0
F F 0.5638996172637629 0.3850570957430734 0.4984918463523165 0.0
N N 0.524056856517487 0.3327758630809522 0.015689409461535103 0.0
N N 0.5037932023074854 0.6528920500429014 0.029465587608105387 0.0
N N 0.6785769831745333 0.5167992669674346 -0.004980707467384 0.0
N N 0.3218700580517112 0.512878171997545 -0.031809618579475125 0.0
_cell_length_a 13.6316
_cell_length_b 13.6316
_cell_length_c 7.968
_cell_angle_alpha 90.0
_cell_angle_beta 90.0
_cell_angle_gamma 90.0
_symmetry_space_group_name_H-M         'P 1'
_symmetry_Int_Tables_number            1
loop_
_symmetry_equiv_pos_as_xyz
   'x, y, z'
                         
loop_
_atom_site_label
_atom_site_type_symbol
_atom_site_fract_x 
_atom_site_fract_y
_atom_site_fract_z
_atom_site_charge
C C 0.49315970178154256 0.6906224220775824 0.10535667774407882 0.0
C C 0.5447507087125503 0.764449142200399 0.1550355735305584 0.0
C C 0.4338671885070228 0.28641141345090493 0.05878785218720541 0.0
C C 0.48393631955574684 0.258405703946143 0.0729051004282901 0.0
C C 0.2964582110291476 0.49419170623229397 0.19309273725996406 0.0
C C 0.1843324774835473 0.5337219674288167 0.12106417552519731 0.0
C C 0.672684210146715 0.4711383372700404 0.1148082613846774 0.0
C C 0.8452481656861442 0.5129616612616621 0.09237810569931025 0.0
C C 0.480294563098393 0.7210928949727033 0.911946717958648 0.0
C C 0.5099118301983796 0.7939187734949834 0.8100011333469613 0.0
C C 0.5553374406286468 0.31303549580879275 0.8955690346585515 0.0
C C 0.49658889146474405 0.20076135361216285 0.8670516819796887 0.0
C C 0.7159873673091314 0.4850509308751797 0.918453735951022 0.0
C C 0.7842255074606208 0.5043670791982225 0.8838168779078318 0.0
C C 0.27358847391407765 0.4623121436176276 0.9204318396725073 0.0
C C 0.21355373008129175 0.40857182767041716 0.8347933938802995 0.0
C C 0.5719995295382546 0.1848255498412342 -0.034898805159280843 0.0
C C 0.47420854226728754 0.0002684813411150525 0.043600359287809705 0.0
C C 0.4946126317537585 0.810982955283777 0.05174749768197948 0.0
C C 0.5147403028495569 0.9307576201068533 -0.1378018131358927 0.0
C C 0.8007044679605961 0.5319441652870277 0.02393692045947139 0.0
C C 0.97256311140328 0.49960214988321083 -0.03022086738992261 0.0
C C 0.1745077177418828 0.5233228685678288 -0.050187801226728605 0.0
C C 0.04828522582877414 0.5554082058989215 0.10330408494792262 0.0
H H 0.5166877017815426 0.6474124220775824 0.21331967774407878 0.0
H H 0.5705407087125502 0.8022891422003989 0.2669335735305584 0.0
H H 0.41033918850702283 0.32962141345090495 0.1667508521872054 0.0
H H 0.4581463195557468 0.22056670394614303 0.1848031004282901 0.0
H H 0.3396682110291477 0.5177197062322939 0.30105573725996404 0.0
H H 0.1464934774835473 0.5595119674288167 0.2329621755251973 0.0
H H 0.629474210146715 0.4476103372700404 0.22277126138467737 0.0
H H 0.8830881656861442 0.4871716612616621 0.20427610569931023 0.0
H H 0.456766563098393 0.6778828949727034 0.8039837179586479 0.0
H H 0.4841218301983795 0.8317587734949834 0.6981031333469613 0.0
H H 0.5788654406286468 0.3562454958087928 0.7876060346585514 0.0
H H 0.522378891464744 0.16292235361216284 0.7551536819796887 0.0
H H 0.6727773673091314 0.5085789308751798 0.8104907359510218 0.0
H H 0.8220655074606208 0.5301570791982225 0.7719188779078318 0.0
H H 0.3167984739140777 0.43878414361762763 0.8124688396725072 0.0
H H 0.17571473008129176 0.3827818276704172 0.7228953938802994 0.0
Cu Cu 0.47240075987539765 0.4791301777381616 0.009566085948821124 0.0
Si Si 0.46361401516479656 0.5240005036856813 0.47760517062014923 0.0
F F 0.4848164713050547 0.4919995282674511 0.7494667079460653 0.0
F F 0.5210994485775086 0.5203222798555451 0.34940951687808675 0.0
F F 0.6048915995110736 0.6150981335917124 0.44105264361607727 0.0
F F 0.4112210809930704 0.572830550646353 0.5619816775086923 0.0
F F 0.41347864787579613 0.41189341904111837 0.5397069373992885 0.0
F F 0.551544311922373 0.4275541420698134 0.46370335529593226 0.0
N N 0.5046520578315781 0.3613385924902966 0.007302251187052017 0.0
N N 0.5240032856041933 0.6071309717188244 -0.02777531578182794 0.0
N N 0.6421841295115096 0.5180550411302373 -0.010526190243290894 0.0
N N 0.3755230836273194 0.526143409808455 -0.03727238867646876 0.0
