_cell_length_a 13.6316
_cell_length_b 13.6316
_cell_length_c 7.968
_cell_angle_alpha 90.0
_cell_angle_beta 90.0
_cell_angle_gamma 90.0
_symmetry_space_group_name_H-M         'P 1'
_symmetry_Int_Tables_number            1
loop_
_symmetry_equiv_pos_as_xyz
   'x, y, z'
                         
loop_
_atom_site_label
_atom_site_type_symbol
_atom_site_fract_x 
_atom_site_fract_y
_atom_site_fract_z
_atom_site_charge
C C 0.5256174074595817 0.7270885072954217 0.10995633457256045 0.0
C C 0.5498517303801543 0.8059078280319307 0.22107025929198426 0.0
C C 0.46511029633504314 0.2723320562147952 0.052534603745134224 0.0
C C 0.45788513035397993 0.16430253026859118 0.10678537228846331 0.0
C C 0.2853395721262262 0.5380295659136309 0.14810358614681401 0.0
C C 0.22635373432238262 0.5841288017323767 0.05253644380296973 0.0
C C 0.7180346966769355 0.48268533445199585 0.24493822558267322 0.0
C C 0.8012464513899836 0.45967591315219974 0.07309579152408495 0.0
C C 0.4870420977298404 0.7022085225318032 0.8642311812164217 0.0
C C 0.5339979284173806 0.8163761016581087 0.8237595556056724 0.0
C C 0.5275704845107718 0.2975030829426075 0.8664680874457926 0.0
C C 0.5455506697033318 0.17990613151761103 0.7651309616656795 0.0
C C 0.7129867569622799 0.5648364134451331 0.8443592633151265 0.0
C C 0.7978628025792341 0.513618814942756 0.7124907064625072 0.0
C C 0.24449022368828852 0.4824504276172347 0.8748436678448209 0.0
C C 0.18800140038708893 0.4599798486204194 0.9597884319286786 0.0
C C 0.476338252712062 0.11502632807029103 0.006777926596280056 0.0
C C 0.5231038410010276 0.07810084734734202 -0.0218378517977509 0.0
C C 0.4781509642098232 0.82665648697944 -0.015902679074961495 0.0
C C 0.510263940966018 1.0186563598037952 -0.016895378175891367 0.0
C C 0.8761599066839533 0.5333826683705052 0.03045240558873382 0.0
C C 0.9160550824202134 0.528868261148654 -0.05941400970578551 0.0
C C 0.08908017606385774 0.4468099065000078 0.060019851619223026 0.0
C C 0.007233601276952285 0.4399445705295932 0.04671489621575073 0.0
H H 0.5491454074595817 0.6838785072954218 0.2179193345725604 0.0
H H 0.5756417303801543 0.8437478280319307 0.33296825929198426 0.0
H H 0.44158229633504315 0.31554205621479525 0.16049760374513417 0.0
H H 0.4320951303539799 0.1264635302685912 0.2186833722884633 0.0
H H 0.3285495721262263 0.5615575659136309 0.256066586146814 0.0
H H 0.18851473432238264 0.6099188017323768 0.1644344438029697 0.0
H H 0.6748246966769356 0.45915733445199586 0.35290122558267323 0.0
H H 0.8390864513899836 0.4338859131521997 0.18499379152408496 0.0
H H 0.4635140977298405 0.6589985225318032 0.7562681812164217 0.0
H H 0.5082079284173805 0.8542161016581087 0.7118615556056723 0.0
H H 0.5510984845107718 0.34071308294260766 0.7585050874457925 0.0
H H 0.5713406697033317 0.14206713151761105 0.6532329616656795 0.0
H H 0.6697767569622799 0.5883644134451331 0.7363962633151264 0.0
H H 0.8357028025792341 0.5394088149427559 0.6005927064625072 0.0
H H 0.2877002236882885 0.4589224276172348 0.7668806678448209 0.0
H H 0.15016240038708892 0.43418984862041937 0.8478904319286784 0.0
Cu Cu 0.5580043440369873 0.48951918551781126 -0.06411618999643799 0.0
Si Si 0.4863866180086606 0.43743074583484076 0.5033601407781804 0.0
F F 0.5170345116403517 0.4618702817828613 0.6674163837051424 0.0
F F 0.5243292068332911 0.5315721794880944 0.3556369377665934 0.0
F F 0.5720130647070151 0.58246648867378 0.45450372038117653 0.0
F F 0.42548724251359765 0.600141320262964 0.49507801406499097 0.0
F F 0.4083771760727349 0.38248670006095903 0.500805273323288 0.0
F F 0.5960388126298649 0.39733851095123807 0.41906612121142445 0.0
N N 0.4984000854694477 0.33927439347792854 -0.0367688904729617 0.0
N N 0.47028551378842526 0.655434431530855 -0.020207886636500173 0.0
N N 0.6801273562066039 0.4904916859489076 -0.017421812216136187 0.0
N N 0.3088741967476761 0.47097465378349906 0.07689467980756907 0.0
_cell_length_a 13.6316
_cell_length_b 13.6316
_cell_length_c 7.968
_cell_angle_alpha 90.0
_cell_angle_beta 90.0
_cell_angle_gamma 90.0
_symmetry_space_group_name_H-M         'P 1'
_symmetry_Int_Tables_number            1
loop_
_symmetry_equiv_pos_as_xyz
   'x, y, z'
                         
loop_
_atom_site_label
_atom_site_type_symbol
_atom_site_fract_x 
_atom_site_fract_y
_atom_site_fract_z
_atom_site_charge
C C 0.4731816577155934 0.6959728211235289 0.09335331226026555 0.0
C C 0.5337788562978517 0.807934844804566 0.15398230097789067 0.0
C C 0.4591747871540569 0.2658974121765709 0.1426286905796303 0.0
C C 0.4193502354624927 0.20371389706998264 0.21747861124385193 0.0
C C 0.27836542305839806 0.503949317594238 0.10459946512826579 0.0
C C 0.22872523423089278 0.5861282976145771 0.12542852321289213 0.0
C C 0.7125954512054467 0.5021281818644343 0.18678293892733067 0.0
C C 0.8198222548869328 0.444633591917743 0.1666578649478091 0.0
C C 0.4662679342126847 0.7243649588443973 0.8242231801892064 0.0
C C 0.44024261952142923 0.7408935848288427 0.8301982441926364 0.0
C C 0.53127909162332 0.25493883133326867 0.7896675293179746 0.0
C C 0.4828527168416813 0.18616235391249555 0.808368156189494 0.0
C C 0.7182512237528325 0.4785174029751227 0.8976161107348593 0.0
C C 0.8062492051522069 0.5361060316307563 0.7932826203267808 0.0
C C 0.30166817791942935 0.48641307118400917 0.7887908786836343 0.0
C C 0.1902806756653074 0.45456497972165766 0.9874348980973889 0.0
C C 0.48706358613955686 0.1720425139630163 0.02571732260576798 0.0
C C 0.4824271167439064 0.0354916952322297 -0.042794352457751816 0.0
C C 0.48702044186400484 0.860051867605337 -0.01122674957467178 0.0
C C 0.5763877235393241 0.9602774356389955 -0.02812547929156127 0.0
C C 0.8649230811747927 0.5267038546970992 -0.0772432570750587 0.0
C C 0.9780093737638689 0.5000150223302972 0.030553800357877012 0.0
C C 0.18857703699062137 0.5344799634664777 -0.05090745357792245 0.0
C C 0.11258563029134026 0.4883879948354823 0.0031700640806940016 0.0
H H 0.4967096577155934 0.6527628211235289 0.20131631226026553 0.0
H H 0.5595688562978517 0.845774844804566 0.2658803009778906 0.0
H H 0.4356467871540569 0.3091074121765709 0.25059169057963027 0.0
H H 0.3935602354624927 0.16587489706998262 0.32937661124385187 0.0
H H 0.3215754230583982 0.527477317594238 0.21256246512826577 0.0
H H 0.1908862342308928 0.6119182976145771 0.2373265232128921 0.0
H H 0.6693854512054467 0.47860018186443437 0.29474593892733064 0.0
H H 0.8576622548869328 0.41884359191774295 0.27855586494780904 0.0
H H 0.44273993421268476 0.6811549588443974 0.7162601801892063 0.0
H H 0.41445261952142926 0.7787335848288427 0.7183002441926364 0.0
H H 0.55480709162332 0.29814883133326875 0.6817045293179745 0.0
H H 0.5086427168416813 0.14832335391249557 0.6964701561894939 0.0
H H 0.6750412237528325 0.5020454029751227 0.7896531107348591 0.0
H H 0.8440892051522069 0.5618960316307563 0.6813846203267807 0.0
H H 0.34487817791942943 0.4628850711840093 0.6808278786836343 0.0
H H 0.15244167566530742 0.4287749797216576 0.8755368980973889 0.0
Cu Cu 0.5000158443488402 0.48913126692733655 0.011744575699447781 0.0
Si Si 0.5117250155735898 0.48557939434476344 0.5785539334989063 0.0
F F 0.5239307955660006 0.4586756366834763 0.6609450319334349 0.0
F F 0.4960212940435135 0.5422699605162745 0.29427922331097645 0.0
F F 0.5999966444188651 0.5749992421577084 0.5068428376500105 0.0
F F 0.41283590642728685 0.5710168833512579 0.6101680912609903 0.0
F F 0.4219589970552804 0.43904091150440544 0.5096719962836483 0.0
F F 0.538527885462088 0.4205875359359302 0.5106949913933181 0.0
N N 0.5193112708951438 0.34526420569286825 0.04508629233078814 0.0
N N 0.502366319328191 0.6752245097251949 -0.011522752300794328 0.0
N N 0.654031967608034 0.500353970282101 -0.009661834961812573 0.0
N N 0.34479630676656764 0.501869244990518 0.10721620425815459 0.0
_cell_length_a 13.6316
_cell_length_b 13.6316
_cell_length_c 7.968
_cell_angle_alpha 90.0
_cell_angle_beta 90.0
_cell_angle_gamma 90.0
_symmetry_space_group_name_H-M         'P 1'
_symmetry_Int_Tables_number            1
loop_
_symmetry_equiv_pos_as_xyz
   'x, y, z'
                         
loop_
_atom_site_label
_atom_site_type_symbol
_atom_site_fract_x 
_atom_site_fract_y
_atom_site_fract_z
_atom_site_charge
C C 0.5347734557613998 0.6646631018292262 0.11667224203848109 0.0
C C 0.5262297523279267 0.822513237434395 0.19016991143644232 0.0
C C 0.46959081979229633 0.3029580663098874 0.10572038057699237 0.0
C C 0.4640931385561684 0.15578882266010677 0.09750802607795893 0.0
C C 0.2908655035013557 0.47193963413449896 0.22935909360081214 0.0
C C 0.1409797078464546 0.5668407272811746 0.12630099173883938 0.0
C C 0.7280940651271406 0.47154237238969116 0.09827293848626148 0.0
C C 0.7892745645433391 0.47361610933730913 0.16933126868461273 0.0
C C 0.484550012764789 0.6827376928283725 0.8525368873455793 0.0
C C 0.4430180481361216 0.814378383593293 0.8874424910478655 0.0
C C 0.5805198397453347 0.2882750866220236 0.8671300038126533 0.0
C C 0.50902581959005 0.18407916324827026 0.8847384996662074 0.0
C C 0.7408851423508783 0.4933312073787712 0.7769474809052654 0.0
C C 0.8037807302164909 0.5229879784832241 0.8066316507560041 0.0
C C 0.32920371197890497 0.45938230459655915 0.8249859124997793 0.0
C C 0.27965529591034105 0.4225117727219094 0.8495237416334867 0.0
C C 0.4898571519275959 0.1484766512889346 -0.010731442005778066 0.0
C C 0.5063699524338877 0.06819352470501042 -0.042865918325928905 0.0
C C 0.4884660775284326 0.8664117046094033 -0.018875928807904938 0.0
C C 0.5097777114065906 1.021511333643121 0.00510768094121121 0.0
C C 0.8650485146795549 0.49579626424866274 0.06251470938359441 0.0
C C 0.9964330673957071 0.45205067024152984 -0.03423028201122 0.0
C C 0.2092380545583466 0.47049452909026457 -0.0452403198630497 0.0
C C 0.06999228456313605 0.5114978834512287 -0.08935791563431796 0.0
H H 0.5583014557613998 0.6214531018292262 0.22463524203848106 0.0
H H 0.5520197523279267 0.860353237434395 0.3020679114364423 0.0
H H 0.44606281979229634 0.34616806630988745 0.21368338057699232 0.0
H H 0.43830313855616837 0.11794982266010676 0.2094060260779589 0.0
H H 0.3340755035013558 0.49546763413449896 0.3373220936008121 0.0
H H 0.1031407078464546 0.5926307272811745 0.23819899173883935 0.0
H H 0.6848840651271406 0.4480143723896912 0.20623593848626146 0.0
H H 0.8271145645433391 0.4478261093373091 0.2812292686846127 0.0
H H 0.46102201276478905 0.6395276928283725 0.7445738873455792 0.0
H H 0.4172280481361216 0.8522183835932929 0.7755444910478655 0.0
H H 0.6040478397453348 0.33148508662202364 0.7591670038126531 0.0
H H 0.53481581959005 0.14624016324827027 0.7728404996662074 0.0
H H 0.6976751423508784 0.5168592073787712 0.6689844809052653 0.0
H H 0.8416207302164909 0.5487779784832241 0.694733650756004 0.0
H H 0.3724137119789051 0.43585430459655927 0.7170229124997791 0.0
H H 0.24181629591034104 0.3967217727219094 0.7376257416334866 0.0
Cu Cu 0.5048386270370235 0.4712746531377752 -0.02305153100817783 0.0
Si Si 0.4885310181293761 0.5392575794042462 0.45074295162302486 0.0
F F 0.5026839002215191 0.49055078903034477 0.7566156399992955 0.0
F F 0.5384257418088177 0.522657867057974 0.22537669054594894 0.0
F F 0.5887426095873768 0.5642859874595203 0.5329243793660894 0.0
F F 0.4091335800453676 0.5553020741368927 0.5786774699753476 0.0
F F 0.38654661851843447 0.3962565754603297 0.47758418823243903 0.0
F F 0.6007180985188165 0.38973247094674135 0.5225253188771304 0.0
N N 0.4973442575154714 0.37899576383594763 -0.014664404505026632 0.0
N N 0.489034218207181 0.6347590736966515 0.0487586741539127 0.0
N N 0.6587235921108906 0.4628667642923588 0.020176623928133294 0.0
N N 0.36896032200011436 0.44708316039369567 0.06507921703463408 0.0
_cell_length_a 13.6316
_cell_length_b 13.6316
_cell_length_c 7.968
_cell_angle_alpha 90.0
_cell_angle_beta 90.0
_cell_angle_gamma 90.0
_symmetry_space_group_name_H-M         'P 1'
_symmetry_Int_Tables_number            1
loop_
_symmetry_equiv_pos_as_xyz
   'x, y, z'
                         
loop_
_atom_site_label
_atom_site_type_symbol
_atom_site_fract_x 
_atom_site_fract_y
_atom_site_fract_z
_atom_site_charge
C C 0.5483437465946794 0.7036149701470621 0.18710678027829442 0.0
C C 0.5469582471616212 0.8326340809635596 0.16968872972852866 0.0
C C 0.47628773712903044 0.3542435606035371 0.1757112748926099 0.0
C C 0.48051128971505735 0.28170267164933693 0.20498906076966905 0.0
C C 0.3314299837418256 0.5218863501831181 0.09562451907258791 0.0
C C 0.25729658958222107 0.5759405088295294 0.14576608907599603 0.0
C C 0.6509963347934349 0.5007696422044579 0.15511393332196208 0.0
C C 0.8133869695302915 0.4322145503680237 0.1626538172649081 0.0
C C 0.4704046434117193 0.7267857766328094 0.813621112713887 0.0
C C 0.4759347183692903 0.7902150848653802 0.8089875165175863 0.0
C C 0.5467427823328198 0.2988539102432757 0.8263462764992296 0.0
C C 0.4921578742110529 0.1968937058847539 0.7511165785617862 0.0
C C 0.6868719866529168 0.5463626721941275 0.820513012670256 0.0
C C 0.7382476764946738 0.5210406549616481 0.8519575077147766 0.0
C C 0.29297017148972393 0.4443145693263265 0.8707979166734723 0.0
C C 0.22738698601802448 0.4660524596629973 0.8409985395485531 0.0
C C 0.5153710733622822 0.15760834965825668 0.009518952202583785 0.0
C C 0.5254901960592376 0.024211393087898606 0.0057044650536448105 0.0
C C 0.5013321286742287 0.9027307395673259 0.02922570688444592 0.0
C C 0.5268668068705814 0.932065645848601 -0.012163461045167735 0.0
C C 0.825423057165031 0.45975134434908643 0.06418513121050855 0.0
C C 0.9460353639291448 0.4868282575199145 0.058824207948699365 0.0
C C 0.12325135495275413 0.5215705040560713 0.0004083354984286124 0.0
C C 0.0004417756355470031 0.49583680496916194 -0.011267662607363794 0.0
H H 0.5718717465946794 0.6604049701470621 0.29506978027829434 0.0
H H 0.5727482471616212 0.8704740809635596 0.28158672972852866 0.0
H H 0.45275973712903045 0.39745356060353715 0.2836742748926099 0.0
H H 0.4547212897150573 0.24386367164933695 0.31688706076966905 0.0
H H 0.37463998374182567 0.5454143501831181 0.20358751907258787 0.0
H H 0.2194575895822211 0.6017305088295293 0.25766408907599603 0.0
H H 0.6077863347934349 0.4772416422044578 0.263076933321962 0.0
H H 0.8512269695302915 0.40642455036802366 0.27455181726490807 0.0
H H 0.44687664341171934 0.6835757766328094 0.7056581127138869 0.0
H H 0.4501447183692903 0.8280550848653802 0.6970895165175862 0.0
H H 0.5702707823328198 0.34206391024327576 0.7183832764992295 0.0
H H 0.5179478742110528 0.15905470588475393 0.6392185785617861 0.0
H H 0.6436619866529169 0.5698906721941275 0.7125500126702559 0.0
H H 0.7760876764946738 0.5468306549616481 0.7400595077147766 0.0
H H 0.33618017148972396 0.4207865693263266 0.7628349166734721 0.0
H H 0.1895479860180245 0.4402624596629973 0.729100539548553 0.0
Cu Cu 0.5219162403878329 0.49197858295983454 -0.0337532588462483 0.0
Si Si 0.48635297630487145 0.504555628815108 0.5051767547997438 0.0
F F 0.525132792104996 0.5045862756815573 0.7430049795929033 0.0
F F 0.5001111752277141 0.5261884281122767 0.23570223637143825 0.0
F F 0.6033439819115731 0.5952087475627359 0.5369010338322788 0.0
F F 0.4315333467753829 0.6099321405820025 0.48126491989389913 0.0
F F 0.40480631315029875 0.37706129172519826 0.45939643925894613 0.0
F F 0.5872748057441255 0.3915071961534657 0.4758030985220501 0.0
N N 0.5671609584660058 0.32884409674265 -0.06693964411016942 0.0
N N 0.4476211638968301 0.6763812616365034 -0.050146761945570544 0.0
N N 0.6257027024626686 0.5059978811708479 -0.1040591687757151 0.0
N N 0.3900489868153006 0.5098435549287307 0.004325175905984418 0.0
_cell_length_a 13.6316
_cell_length_b 13.6316
_cell_length_c 7.968
_cell_angle_alpha 90.0
_cell_angle_beta 90.0
_cell_angle_gamma 90.0
_symmetry_space_group_name_H-M         'P 1'
_symmetry_Int_Tables_number            1
loop_
_symmetry_equiv_pos_as_xyz
   'x, y, z'
                         
loop_
_atom_site_label
_atom_site_type_symbol
_atom_site_fract_x 
_atom_site_fract_y
_atom_site_fract_z
_atom_site_charge
C C 0.573211761354538 0.720986949882334 0.09062901482467471 0.0
C C 0.5567956091874322 0.7932823518162406 0.1494905731648285 0.0
C C 0.4375062245237574 0.2739214485266426 0.12908465304022282 0.0
C C 0.42616733161274445 0.141429635210701 0.18766250764337167 0.0
C C 0.30057495154880065 0.5478302802677987 0.1144594290950737 0.0
C C 0.16553550546567272 0.5604318113890066 0.14708189687841855 0.0
C C 0.7168357027258238 0.4926197745935412 0.14224804554545195 0.0
C C 0.808352131417123 0.4563528034639588 0.10833353047312816 0.0
C C 0.4729619455253914 0.6884727640522507 0.7930328049445996 0.0
C C 0.4086993854722733 0.7696306315107133 0.8601344170441713 0.0
C C 0.5574542981229234 0.31186760641783806 0.852549919906207 0.0
C C 0.5523817925601626 0.15907577910364573 0.7938652986621031 0.0
C C 0.675410015835122 0.5331487519817149 0.8357634988080183 0.0
C C 0.8573807278671802 0.5622234212284689 0.8473715005329749 0.0
C C 0.3177448069832668 0.4250530723697993 0.8895453789708073 0.0
C C 0.19064212363532285 0.47854041461937713 0.7852047624266978 0.0
C C 0.5225798323763688 0.11842536465787959 0.1030874884085864 0.0
C C 0.5009247389045478 0.03715177266298486 0.034833867698982925 0.0
C C 0.5310352636153994 0.8686466891096102 0.015911417982072417 0.0
C C 0.5716662979084814 0.9355591158212024 -0.006827800632403408 0.0
C C 0.8856760613218323 0.5148104590054117 0.01595947807808302 0.0
C C 1.0170828953016482 0.5117510277781023 0.023493334254568926 0.0
C C 0.1606984894969696 0.48368436841412427 -0.0627451708929134 0.0
C C -0.003908748801525275 0.4873851940431016 0.06845755010716033 0.0
H H 0.596739761354538 0.6777769498823341 0.1985920148246747 0.0
H H 0.5825856091874322 0.8311223518162406 0.2613885731648285 0.0
H H 0.41397822452375743 0.31713144852664255 0.23704765304022277 0.0
H H 0.4003773316127444 0.10359063521070101 0.2995605076433716 0.0
H H 0.34378495154880073 0.5713582802677987 0.22242242909507368 0.0
H H 0.1276965054656727 0.5862218113890065 0.25897989687841855 0.0
H H 0.6736257027258238 0.46909177459354123 0.2502110455454519 0.0
H H 0.846192131417123 0.43056280346395875 0.22023153047312813 0.0
H H 0.44943394552539145 0.6452627640522507 0.6850698049445996 0.0
H H 0.3829093854722733 0.8074706315107133 0.7482364170441712 0.0
H H 0.5809822981229233 0.35507760641783814 0.744586919906207 0.0
H H 0.5781717925601626 0.12123677910364575 0.681967298662103 0.0
H H 0.632200015835122 0.5566767519817148 0.7278004988080181 0.0
H H 0.8952207278671802 0.5880134212284688 0.7354735005329749 0.0
H H 0.3609548069832668 0.4015250723697993 0.7815823789708073 0.0
H H 0.15280312363532286 0.45275041461937715 0.6733067624266977 0.0
Cu Cu 0.5036196958192302 0.46867070755380297 -0.023033210721895042 0.0
Si Si 0.5381413874772907 0.4859791846292652 0.5000477124852447 0.0
F F 0.49696810346183 0.4488700860444559 0.7325551516011712 0.0
F F 0.5440982127830891 0.5007969997663331 0.29777928437741796 0.0
F F 0.6043802124626623 0.5883723329152245 0.49968728661421646 0.0
F F 0.39756819340607474 0.5244787157469747 0.5140026615204664 0.0
F F 0.41750513900038694 0.4179915605053921 0.4346658192932235 0.0
F F 0.629833229262611 0.40836776133675345 0.47961034075705006 0.0
N N 0.49965514581287873 0.35934672271862694 0.032442464855174415 0.0
N N 0.5243547079654551 0.6186406226974982 0.04391669024529545 0.0
N N 0.6401670099432001 0.45974199885774963 -0.04663211291337542 0.0
N N 0.3632177160732816 0.48066011430635214 -0.08483750534904548 0.0
_cell_length_a 13.6316
_cell_length_b 13.6316
_cell_length_c 7.968
_cell_angle_alpha 90.0
_cell_angle_beta 90.0
_cell_angle_gamma 90.0
_symmetry_space_group_name_H-M         'P 1'
_symmetry_Int_Tables_number            1
loop_
_symmetry_equiv_pos_as_xyz
   'x, y, z'
                         
loop_
_atom_site_label
_atom_site_type_symbol
_atom_site_fract_x 
_atom_site_fract_y
_atom_site_fract_z
_atom_site_charge
C C 0.53464571139261 0.7128561694369067 0.11813320363262889 0.0
C C 0.5454772348178202 0.7653510446619046 0.1112194838665527 0.0
C C 0.4860608708261827 0.26812440176108543 0.17084928314855927 0.0
C C 0.4791678343170012 0.26287344025886134 0.13397354989420654 0.0
C C 0.29449297877847985 0.4903545116438298 0.15970234636085007 0.0
C C 0.22738032994285468 0.5196796075195593 0.1315163657577888 0.0
C C 0.6620612507331572 0.4931169797254672 0.07195226477051943 0.0
C C 0.8105149427624545 0.4491052787238854 0.20811537011775696 0.0
C C 0.4351463846479135 0.7058935074517956 0.8578190005099224 0.0
C C 0.4942825721060808 0.7716499031805141 0.8660630296216181 0.0
C C 0.49072352210072956 0.28207019096236424 0.8729976619709549 0.0
C C 0.5193936278669935 0.18425191006393116 0.8273774329989303 0.0
C C 0.6354238065794254 0.4854078800091828 0.8204383389686819 0.0
C C 0.8230676059823174 0.538982749675953 0.8757449735181517 0.0
C C 0.30687571881465575 0.4626905213038427 0.903453101424756 0.0
C C 0.1152786914546873 0.4544527180874823 0.9072883361797245 0.0
C C 0.5559383915457836 0.1423173908047176 -0.004198765025513941 0.0
C C 0.5071561035365663 0.001953559269259854 0.03021386173817369 0.0
C C 0.5183206763642733 0.8686132247331351 -0.06511890398631082 0.0
C C 0.521267561663151 0.9451504678762449 0.003728448045946551 0.0
C C 0.8537420369444471 0.5197329660305661 -0.0020732121733958143 0.0
C C 1.009911348799787 0.5496766758417431 -0.020462260250856037 0.0
C C 0.14084023170645474 0.5688841123033501 -0.04094770487359683 0.0
C C 0.045968263760838804 0.49821982365888007 -0.011908502045327545 0.0
H H 0.55817371139261 0.6696461694369067 0.22609620363262886 0.0
H H 0.5712672348178202 0.8031910446619046 0.22311748386655267 0.0
H H 0.4625328708261827 0.31133440176108546 0.27881228314855927 0.0
H H 0.4533778343170012 0.22503444025886135 0.2458715498942065 0.0
H H 0.33770297877847993 0.5138825116438298 0.26766534636085004 0.0
H H 0.1895413299428547 0.5454696075195593 0.24341436575778877 0.0
H H 0.6188512507331573 0.4695889797254672 0.1799152647705194 0.0
H H 0.8483549427624545 0.42331527872388536 0.320013370117757 0.0
H H 0.41161838464791356 0.6626835074517956 0.7498560005099223 0.0
H H 0.4684925721060808 0.8094899031805141 0.754165029621618 0.0
H H 0.5142515221007297 0.32528019096236427 0.7650346619709548 0.0
H H 0.5451836278669935 0.14641291006393117 0.7154794329989302 0.0
H H 0.5922138065794255 0.5089358800091828 0.7124753389686819 0.0
H H 0.8609076059823173 0.564772749675953 0.7638469735181517 0.0
H H 0.35008571881465583 0.4391625213038427 0.795490101424756 0.0
H H 0.07743969145468732 0.42866271808748224 0.7953903361797244 0.0
Cu Cu 0.5094520810538588 0.563611957844682 0.025252455137335275 0.0
Si Si 0.5043731313302219 0.4673461606711714 0.529480347498675 0.0
F F 0.4758342941596245 0.48867368684368434 0.7496850955394566 0.0
F F 0.5062790507820562 0.47735409919129207 0.24021226482592034 0.0
F F 0.6410013738158051 0.6141986960232899 0.5358411240777893 0.0
F F 0.4191483694066629 0.6824298193957918 0.5098879218078962 0.0
F F 0.4392922721538179 0.34513220218758855 0.5593678915524094 0.0
F F 0.6163188737180014 0.39876997595639346 0.4800051685814696 0.0
N N 0.4721930289338285 0.33573900871735485 -0.054446321942358114 0.0
N N 0.5153571065692397 0.6694211372387763 -0.03068935090529676 0.0
N N 0.6722598195151723 0.4998441401479004 0.008088361438861217 0.0
N N 0.36969823373187005 0.4776032408197565 -0.024290289079186515 0.0
_cell_length_a 13.6316
_cell_length_b 13.6316
_cell_length_c 7.968
_cell_angle_alpha 90.0
_cell_angle_beta 90.0
_cell_angle_gamma 90.0
_symmetry_space_group_name_H-M         'P 1'
_symmetry_Int_Tables_number            1
loop_
_symmetry_equiv_pos_as_xyz
   'x, y, z'
                         
loop_
_atom_site_label
_atom_site_type_symbol
_atom_site_fract_x 
_atom_site_fract_y
_atom_site_fract_z
_atom_site_charge
C C 0.5483593307999372 0.6932806570903578 0.16675025101946983 0.0
C C 0.5055469093679447 0.7558911148871135 0.1866840902396186 0.0
C C 0.4289859270907654 0.31171423687413846 0.09868550628135368 0.0
C C 0.5219522290466954 0.16305128395703783 0.11926766979198922 0.0
C C 0.28083935095214435 0.5771720815907614 0.06588747056845895 0.0
C C 0.14026658438778478 0.596740306310474 0.15769987011895395 0.0
C C 0.6584980430074725 0.483789483085221 0.2557031880296177 0.0
C C 0.8110724025742266 0.49319535041608376 0.1455797796511166 0.0
C C 0.42079302154424936 0.6863831698024692 0.8909884280536303 0.0
C C 0.47066519997004325 0.7765667267950985 0.9735475813563625 0.0
C C 0.5024809768705323 0.311894257449302 0.8628914817848808 0.0
C C 0.5303065428158291 0.2398089581512112 0.8472433235960788 0.0
C C 0.689541835123942 0.53413996140276 0.9145257065100199 0.0
C C 0.820051816247425 0.5534531284514363 0.7752581498679846 0.0
C C 0.3299186028209837 0.46619941802615644 0.8536926201843729 0.0
C C 0.1606949397902617 0.4624893824869177 0.9029776984213728 0.0
C C 0.4692328523451418 0.13362047428106136 0.07411097632844031 0.0
C C 0.5039068640950968 0.002186594586419928 -0.05255365881267244 0.0
C C 0.500357000761532 0.9000549145997513 -0.033048386165800706 0.0
C C 0.49239561582148506 0.9729920038597745 0.08772932536746518 0.0
C C 0.8549390152324313 0.5375035383668453 -0.13220188203432295 0.0
C C 1.0035910708482194 0.49463246066388716 -0.037919302064141076 0.0
C C 0.1286156686612023 0.4930325364132266 -0.11131509822952056 0.0
C C 0.053965105233409985 0.48013727701844966 -0.04893020850496434 0.0
H H 0.5718873307999371 0.6500706570903579 0.2747132510194698 0.0
H H 0.5313369093679446 0.7937311148871135 0.2985820902396186 0.0
H H 0.4054579270907654 0.3549242368741385 0.20664850628135364 0.0
H H 0.4961622290466953 0.12521228395703787 0.2311656697919892 0.0
H H 0.32404935095214443 0.6007000815907615 0.17385047056845893 0.0
H H 0.10242758438778476 0.6225303063104741 0.2695978701189539 0.0
H H 0.6152880430074725 0.460261483085221 0.3636661880296177 0.0
H H 0.8489124025742266 0.4674053504160837 0.25747777965111657 0.0
H H 0.39726502154424936 0.6431731698024692 0.7830254280536303 0.0
H H 0.4448751999700432 0.8144067267950985 0.8616495813563625 0.0
H H 0.5260089768705323 0.3551042574493021 0.7549284817848807 0.0
H H 0.556096542815829 0.20196995815121122 0.7353453235960787 0.0
H H 0.646331835123942 0.5576679614027599 0.8065627065100197 0.0
H H 0.8578918162474249 0.5792431284514362 0.6633601498679844 0.0
H H 0.3731286028209838 0.44267141802615656 0.7457296201843727 0.0
H H 0.1228559397902617 0.43669938248691764 0.7910796984213727 0.0
Cu Cu 0.47850363412757096 0.482468994201498 -0.10165972798748091 0.0
Si Si 0.5107244419554141 0.4979777706151569 0.4554512604359733 0.0
F F 0.5362940910066751 0.5710185624143639 0.6616705292558883 0.0
F F 0.5257401663271671 0.5321953433419971 0.18565968533905514 0.0
F F 0.5696557812213467 0.5906980086155542 0.42548120634090564 0.0
F F 0.389145846766944 0.5736131175963667 0.4950809938602526 0.0
F F 0.4051381599967173 0.44447722309192234 0.5088660662160162 0.0
F F 0.6065275267657607 0.3985962009556558 0.44733178909090304 0.0
N N 0.5268307279885837 0.3304971136938668 0.04269805507086981 0.0
N N 0.4971088665500775 0.6666873004946087 0.01866470703064864 0.0
N N 0.6519890471206358 0.5461680066324348 -0.03171435730856505 0.0
N N 0.3188630173914076 0.5297128468378505 -0.015221838013896379 0.0
