_cell_length_a 12.935
_cell_length_b 23.242012
_cell_length_c 12.93505
_cell_angle_alpha 90.0
_cell_angle_beta 90.0
_cell_angle_gamma 90.0
_symmetry_space_group_name_H-M         'P 1'
_symmetry_Int_Tables_number            1
loop_
_symmetry_equiv_pos_as_xyz
   'x, y, z'
                         
loop_
_atom_site_label
_atom_site_type_symbol
_atom_site_fract_x 
_atom_site_fract_y
_atom_site_fract_z
_atom_site_charge
C1 C1 0.54857 1.18845 0.63126 0.0
C2 C2 0.42654 1.19773 0.63935 0.0
C3 C3 0.37525 1.15173 0.63795 0.0
H3 H3 0.4086 1.1153 0.6354 0.0
C4 C4 0.25285 1.15673 0.64065 0.0
C5 C5 0.21335 1.21383 0.66295 0.0
C6 C6 0.28335 1.26623 0.65654 0.0
H6 H6 0.2531 1.3034 0.659 0.0
C7 C7 0.38845 1.26153 0.64745 0.0
H7 H7 0.4337 1.2936 0.6461 0.0
C8 C8 0.19126 1.10903 0.64406 0.0
H8 H8 0.2176 1.0712 0.636 0.0
C9 C9 0.09355 1.11964 0.65925 0.0
H9 H9 0.051 1.0868 0.67 0.0
C10 C10 0.04036 1.17534 0.66176 0.0
C11 C11 0.10925 1.21843 0.66095 0.0
H11 H11 0.0818 1.2563 0.6587 0.0
C12 C12 0.76146 1.17393 0.45946 0.0
C13 C13 0.72596 1.19654 0.84897 0.0
C14 C14 0.73397 1.20384 0.94687 0.0
C15 C15 0.73795 1.14723 1.02355 0.0
H15 H15 0.7394 1.1094 0.9956 0.0
C16 C16 0.73875 1.15513 1.11926 0.0
C17 C17 0.74445 1.21133 1.16555 0.0
C18 C18 0.75065 1.26192 1.10735 0.0
H18 H18 0.7689 1.2985 1.1342 0.0
C19 C19 0.72825 1.25173 1.01285 0.0
H19 H19 0.701 1.2846 0.9788 0.0
C20 C20 0.75246 1.10683 1.19015 0.0
H20 H20 0.7645 1.0705 1.1587 0.0
C21 C21 0.75007 1.10703 1.29886 0.0
H21 H21 0.7483 1.0733 1.3404 0.0
C22 C22 0.75034 1.16822 1.34144 0.0
C23 C23 0.75805 1.21513 1.28424 0.0
H23 H23 0.7718 1.2512 1.3159 0.0
C24 C24 0.93006 1.17754 0.66585 0.0
C25 C25 0.75976 1.01573 0.78106 0.0
H25 H25 0.784 1.0457 0.8246 0.0
C26 C26 0.76947 0.96194 0.81686 0.0
H26 H26 0.7894 0.9536 0.8859 0.0
C27 C27 0.74906 0.92153 0.74926 0.0
H27 H27 0.7719 0.8834 0.7622 0.0
C28 C28 0.69074 0.93393 0.65185 0.0
C29 C29 0.69676 1.00254 0.62447 0.0
C30 C30 0.63015 1.01253 0.53676 0.0
H30 H30 0.6087 1.0511 0.5254 0.0
C31 C31 0.59647 0.97454 0.47207 0.0
H31 H31 0.5701 0.9875 0.4075 0.0
C32 C32 0.59657 0.91064 0.49316 0.0
H32 H32 0.5643 0.8824 0.4507 0.0
C33 C33 0.64947 0.89914 0.58177 0.0
C34 C34 0.58226 0.80444 0.62346 0.0
C35 C35 0.76578 0.81463 0.58306 0.0
C36 C36 0.77636 0.75334 0.60216 0.0
C37 C37 0.87237 0.72555 0.58908 0.0
H37 H37 0.9267 0.7461 0.5563 0.0
C38 C38 0.88907 0.67567 0.61809 0.0
H38 H38 0.9585 0.6635 0.6278 0.0
C39 C39 0.81377 0.63884 0.63586 0.0
C40 C40 0.71506 0.66084 0.65716 0.0
C41 C41 0.69736 0.72223 0.62605 0.0
C42 C42 0.60446 0.74054 0.63846 0.0
C43 C43 0.51925 0.70633 0.66656 0.0
H43 H43 0.4516 0.7217 0.6737 0.0
C44 C44 0.54057 0.64914 0.68287 0.0
H44 H44 0.4877 0.6249 0.7094 0.0
C45 C45 0.62087 0.62944 0.66517 0.0
C46 C46 0.635011 0.55755 0.66611 0.0
C47 C47 0.811611 0.57215 0.65017 0.0
C48 C48 0.76406 0.47764 0.71346 0.0
C49 C49 0.81488 0.46935 0.82209 0.0
H49 H49 0.8243 0.5026 0.8636 0.0
C50 C50 0.852717 0.40799 0.869216 0.0
H50 H50 0.8924 0.4006 0.9296 0.0
C51 C51 0.80189 0.35916 0.78071 0.0
H51 H51 0.7882 0.3205 0.8002 0.0
C52 C52 0.77753 0.3818318 0.66123 0.0
C53 C53 0.74345 0.43494 0.64326 0.0
C54 C54 0.69657 0.45014 0.54187 0.0
H54 H54 0.6873 0.4888 0.5204 0.0
C55 C55 0.66766 0.40484 0.48156 0.0
H55 H55 0.628 0.4092 0.4202 0.0
C56 C56 0.69699 0.35796 0.51328 0.0
H56 H56 0.6929 0.3295 0.4604 0.0
N1 N1 0.71935 1.03153 0.69035 0.0
N2 N2 0.67406 0.83173 0.59715 0.0
N3 N3 0.74746 0.54254 0.67626 0.0
N4 N4 0.73434 0.33452 0.60484 0.0
O1 O1 0.57965 1.14383 0.63315 0.0
O2 O2 0.58514 1.23853 0.61965 0.0
O3 O3 0.75445 1.13083 0.50554 0.0
O4 O4 0.75325 1.22242 0.49354 0.0
O5 O5 0.71926 1.14233 0.80465 0.0
O6 O6 0.73827 1.24334 0.79575 0.0
O7 O7 0.88066 1.13333 0.67196 0.0
O8 O8 0.89984 1.23122 0.65085 0.0
O9 O9 0.83955 0.84293 0.55535 0.0
O10 O10 0.50355 0.82483 0.64805 0.0
O11 O11 0.92286 0.54973 0.65895 0.0
O12 O12 0.57246 0.52843 0.71706 0.0
Zn1 Zn1 0.747886 1.251283 0.641075 0.0
Zn2 Zn2 0.728876 1.123293 0.658906 0.0
_cell_length_a 12.935
_cell_length_b 23.242012
_cell_length_c 12.93505
_cell_angle_alpha 90.0
_cell_angle_beta 90.0
_cell_angle_gamma 90.0
_symmetry_space_group_name_H-M         'P 1'
_symmetry_Int_Tables_number            1
loop_
_symmetry_equiv_pos_as_xyz
   'x, y, z'
                         
loop_
_atom_site_label
_atom_site_type_symbol
_atom_site_fract_x 
_atom_site_fract_y
_atom_site_fract_z
_atom_site_charge
C1 C1 0.54857 1.18845 0.63126 0.0
C2 C2 0.42654 1.19773 0.63935 0.0
C3 C3 0.37525 1.15173 0.63795 0.0
H3 H3 0.4086 1.1153 0.6354 0.0
C4 C4 0.25285 1.15673 0.64065 0.0
C5 C5 0.21335 1.21383 0.66295 0.0
C6 C6 0.28335 1.26623 0.65654 0.0
H6 H6 0.2531 1.3034 0.659 0.0
C7 C7 0.38845 1.26153 0.64745 0.0
H7 H7 0.4337 1.2936 0.6461 0.0
C8 C8 0.19126 1.10903 0.64406 0.0
H8 H8 0.2176 1.0712 0.636 0.0
C9 C9 0.09355 1.11964 0.65925 0.0
H9 H9 0.051 1.0868 0.67 0.0
C10 C10 0.04036 1.17534 0.66176 0.0
C11 C11 0.10925 1.21843 0.66095 0.0
H11 H11 0.0818 1.2563 0.6587 0.0
C12 C12 0.76146 1.17393 0.45946 0.0
C13 C13 0.72596 1.19654 0.84897 0.0
C14 C14 0.73397 1.20384 0.94687 0.0
C15 C15 0.73795 1.14723 1.02355 0.0
H15 H15 0.7394 1.1094 0.9956 0.0
C16 C16 0.73875 1.15513 1.11926 0.0
C17 C17 0.74445 1.21133 1.16555 0.0
C18 C18 0.75065 1.26192 1.10735 0.0
H18 H18 0.7689 1.2985 1.1342 0.0
C19 C19 0.72825 1.25173 1.01285 0.0
H19 H19 0.701 1.2846 0.9788 0.0
C20 C20 0.75246 1.10683 1.19015 0.0
H20 H20 0.7645 1.0705 1.1587 0.0
C21 C21 0.75007 1.10703 1.29886 0.0
H21 H21 0.7483 1.0733 1.3404 0.0
C22 C22 0.75034 1.16822 1.34144 0.0
C23 C23 0.75805 1.21513 1.28424 0.0
H23 H23 0.7718 1.2512 1.3159 0.0
C24 C24 0.93006 1.17754 0.66585 0.0
C25 C25 0.75976 1.01573 0.78106 0.0
H25 H25 0.784 1.0457 0.8246 0.0
C26 C26 0.76947 0.96194 0.81686 0.0
H26 H26 0.7894 0.9536 0.8859 0.0
C27 C27 0.74906 0.92153 0.74926 0.0
H27 H27 0.7719 0.8834 0.7622 0.0
C28 C28 0.69074 0.93393 0.65185 0.0
C29 C29 0.69676 1.00254 0.62447 0.0
C30 C30 0.63015 1.01253 0.53676 0.0
H30 H30 0.6087 1.0511 0.5254 0.0
C31 C31 0.59647 0.97454 0.47207 0.0
H31 H31 0.5701 0.9875 0.4075 0.0
C32 C32 0.59657 0.91064 0.49316 0.0
H32 H32 0.5643 0.8824 0.4507 0.0
C33 C33 0.64947 0.89914 0.58177 0.0
C34 C34 0.58226 0.80444 0.62346 0.0
C35 C35 0.76578 0.81463 0.58306 0.0
C36 C36 0.77636 0.75334 0.60216 0.0
C37 C37 0.87237 0.72555 0.58908 0.0
H37 H37 0.9267 0.7461 0.5563 0.0
C38 C38 0.88907 0.67567 0.61809 0.0
H38 H38 0.9585 0.6635 0.6278 0.0
C39 C39 0.81377 0.63884 0.63586 0.0
C40 C40 0.71506 0.66084 0.65716 0.0
C41 C41 0.69736 0.72223 0.62605 0.0
C42 C42 0.60446 0.74054 0.63846 0.0
C43 C43 0.51925 0.70633 0.66656 0.0
H43 H43 0.4516 0.7217 0.6737 0.0
C44 C44 0.54057 0.64914 0.68287 0.0
H44 H44 0.4877 0.6249 0.7094 0.0
C45 C45 0.62087 0.62944 0.66517 0.0
C46 C46 0.635011 0.55755 0.66611 0.0
C47 C47 0.811611 0.57215 0.65017 0.0
C48 C48 0.76406 0.47764 0.71346 0.0
C49 C49 0.81488 0.46935 0.82209 0.0
H49 H49 0.8243 0.5026 0.8636 0.0
C50 C50 0.852717 0.40799 0.869216 0.0
H50 H50 0.8924 0.4006 0.9296 0.0
C51 C51 0.80189 0.35916 0.78071 0.0
H51 H51 0.7882 0.3205 0.8002 0.0
C52 C52 0.77753 0.3818318 0.66123 0.0
C53 C53 0.74345 0.43494 0.64326 0.0
C54 C54 0.69657 0.45014 0.54187 0.0
H54 H54 0.6873 0.4888 0.5204 0.0
C55 C55 0.66766 0.40484 0.48156 0.0
H55 H55 0.628 0.4092 0.4202 0.0
C56 C56 0.69699 0.35796 0.51328 0.0
H56 H56 0.6929 0.3295 0.4604 0.0
N1 N1 0.71935 1.03153 0.69035 0.0
N2 N2 0.67406 0.83173 0.59715 0.0
N3 N3 0.74746 0.54254 0.67626 0.0
N4 N4 0.73434 0.33452 0.60484 0.0
O1 O1 0.57965 1.14383 0.63315 0.0
O2 O2 0.58514 1.23853 0.61965 0.0
O3 O3 0.75445 1.13083 0.50554 0.0
O4 O4 0.75325 1.22242 0.49354 0.0
O5 O5 0.71926 1.14233 0.80465 0.0
O6 O6 0.73827 1.24334 0.79575 0.0
O7 O7 0.88066 1.13333 0.67196 0.0
O8 O8 0.89984 1.23122 0.65085 0.0
O9 O9 0.83955 0.84293 0.55535 0.0
O10 O10 0.50355 0.82483 0.64805 0.0
O11 O11 0.92286 0.54973 0.65895 0.0
O12 O12 0.57246 0.52843 0.71706 0.0
Zn1 Zn1 0.747886 1.251283 0.641075 0.0
Zn2 Zn2 0.728876 1.123293 0.658906 0.0
