_cell_length_a 19.5206
_cell_length_b 17.9856
_cell_length_c 12.6054
_cell_angle_alpha 90.0
_cell_angle_beta 99.0355
_cell_angle_gamma 90.0
_symmetry_space_group_name_H-M         'P 1'
_symmetry_Int_Tables_number            1
loop_
_symmetry_equiv_pos_as_xyz
   'x, y, z'
                         
loop_
_atom_site_label
_atom_site_type_symbol
_atom_site_fract_x 
_atom_site_fract_y
_atom_site_fract_z
_atom_site_charge
C C 0.24144273182035147 0.8847146628872103 0.6071068011091684 0.0
H H 0.24032273182035147 0.9352846628872103 0.5921768011091684 0.0
C C 0.2438352253880632 0.8484104287594887 0.5350604937239297 0.0
H H 0.2451152253880632 0.8670804287594889 0.46652049372392973 0.0
C C 0.23414950025323442 0.7900301469693338 0.5332135024010227 0.0
C C 0.2417965891030283 0.7676087644892554 0.6331686703338737 0.0
H H 0.24436658910302833 0.7171787644892554 0.6499286703338736 0.0
C C 0.24017398756671893 0.8080845536448652 0.7424999998274792 0.0
H H 0.24095398756671893 0.7909645536448652 0.8122699998274792 0.0
C C 0.3433632237910887 0.9380389350669361 0.9986124379363662 0.0
H H 0.31694322379108864 0.9054089350669363 1.0327824379363661 0.0
C C 0.423804246774682 0.9389118327657962 1.0030210426982262 0.0
H H 0.44268424677468193 0.911981832765796 1.0635810426982262 0.0
C C 0.4702596316159376 0.9847545135943407 0.9829126229530415 0.0
C C 0.4449034691611762 1.007864302109555 0.89464825987436 0.0
H H 0.4706734691611761 1.0400343021095548 0.85870825987436 0.0
C C 0.3663824240821267 0.9950676029688473 0.8835668669267727 0.0
H H 0.3461624240821266 1.0214376029688474 0.8231268669267725 0.0
C C 0.17601478275577268 0.8945147259247015 0.9549231439397704 0.0
C C 0.1255034974207059 0.8773600487608104 1.0549961688712852 0.0
C C 0.07112357980759251 0.790861519380601 1.0192891061264426 0.0
H H 0.0715035798075925 0.776941519380601 0.9482591061264426 0.0
C C 0.03703989185130081 0.7617958577175707 1.0576905263825447 0.0
H H 0.011419891851300821 0.7214758577175707 1.0268505263825447 0.0
C C 0.04745738380626249 0.7694823150474419 1.2015378314069531 0.0
C C 0.07955915969475354 0.8396261286843177 1.2114597029579564 0.0
H H 0.07673915969475356 0.8546961286843177 1.2812297029579567 0.0
C C 0.11518185431484071 0.8810436135165404 1.1834785955296754 0.0
C C 0.15829205465165022 0.9433570603258974 1.235105545382193 0.0
C C -0.008309749792097545 0.7192290784259516 1.2370342469341746 0.0
C C -0.062413271696549213 0.6816826673590424 1.1777298624035417 0.0
F F -0.11444660948248284 0.7134146155900224 1.1118193864790444 0.0
F F -0.04206270721685057 0.6175042236432275 1.1337488509358002 0.0
F F -0.08181322645152422 0.6444181030765237 1.2621248283605195 0.0
N N 0.2046471288803263 0.8698476547577524 0.7003085170564656 0.0
N N 0.32534347930993635 0.9767223311594894 0.8839308471625925 0.0
O O 0.17204505859743607 0.9621873068833461 1.014418837104384 0.0
O O 0.17982664573731383 0.8713772311482924 0.9143672098711668 0.0
O O 0.2505106448525155 0.9236330290548013 1.2004274338197896 0.0
O O 0.13835574891764046 0.9951771898776346 1.2562043150387696 0.0
Zn Zn 0.21141206725753342 0.9347043166645731 0.8414162294887461 0.0
C C -0.2300891410658601 0.8815201603281073 -0.10300148978840534 0.0
H H -0.22896914106586008 0.9320901603281072 -0.08807148978840534 0.0
C C -0.24661918072503675 0.8141004572082827 -0.029337180795334095 0.0
H H -0.24789918072503678 0.8327704572082828 0.03920281920466589 0.0
C C -0.24008850614288965 0.7564409288923278 -0.03575608033910969 0.0
C C -0.2665282557103619 0.7589536652193727 -0.15263819644824692 0.0
H H -0.26909825571036194 0.7085236652193727 -0.16939819644824688 0.0
C C -0.270065950838309 0.8063196574317147 -0.2537651055410792 0.0
H H -0.2708459508383089 0.7891996574317146 -0.32353510554107906 0.0
C C -0.34254247761451906 0.9306923864322226 -0.47381511225748163 0.0
H H -0.3161224776145191 0.8980623864322228 -0.5079851122574817 0.0
C C -0.4029337610288952 0.9590703286666723 -0.5250438526523129 0.0
H H -0.4218137610288951 0.9321403286666723 -0.5856038526523129 0.0
C C -0.4675218986033706 0.9969250396607395 -0.4914270026781259 0.0
C C -0.42472562808318154 1.0331339116387623 -0.3871008996817815 0.0
H H -0.4504956280831814 1.0653039116387621 -0.3511608996817816 0.0
C C -0.346618083451961 1.041948607759805 -0.3454001403694039 0.0
H H -0.3263980834519609 1.068318607759805 -0.2849601403694038 0.0
C C -0.1647175430040635 0.9058359635722524 -0.48387612295408555 0.0
C C -0.11095557012008489 0.8431167710253977 -0.5440217909261864 0.0
C C -0.08630117246293914 0.8127156193189006 -0.515652308094187 0.0
H H -0.08668117246293912 0.7987956193189006 -0.4446223080941869 0.0
C C -0.043213206138976154 0.754101820306431 -0.564682701151072 0.0
H H -0.01759320613897616 0.7137818203064309 -0.5338427011510719 0.0
C C -0.030061261228906788 0.7821118548124167 -0.6589282208078692 0.0
C C -0.08571817994178349 0.8499920037352205 -0.7096953666585122 0.0
H H -0.0828981799417835 0.8650620037352205 -0.7794653666585123 0.0
C C -0.12220273278157968 0.8658083967578817 -0.6748055952298005 0.0
C C -0.17955797348586705 0.9298574899986535 -0.7298048964991822 0.0
C C 0.007167303891298367 0.7172717559308757 -0.7863900003547373 0.0
C C 0.04391627865769305 0.6981843193762319 -0.7028780957763013 0.0
F F 0.08092287720826695 0.7123952925133912 -0.6226291254676305 0.0
F F 0.02479775603812747 0.6118753073811961 -0.6381002992273079 0.0
F F 0.09863965159506398 0.6400305204185458 -0.7425260432489742 0.0
N N -0.23788046187922368 0.8655181051934479 -0.18652004398814556 0.0
N N -0.32258446783156364 0.982046351172507 -0.4109344472244343 0.0
O O -0.17332206134494585 0.9761096291089413 -0.48771200125398356 0.0
O O -0.1793978023226365 0.8816870721985505 -0.43858310683236335 0.0
O O -0.22616770547936987 0.9546350561282984 -0.7279889426575339 0.0
O O -0.13750767929960644 0.9836041298201516 -0.7751573889897233 0.0
Zn Zn -0.20470628103593716 0.9539511064836169 -0.2989441021718317 0.0
C C 0.7285508292299471 1.4068588323612479 0.6013352363041222 0.0
H H 0.7274308292299471 1.4574288323612479 0.5864052363041222 0.0
C C 0.7425854418638458 1.3608357763600685 0.541433956299496 0.0
H H 0.7438654418638457 1.3795057763600684 0.472893956299496 0.0
C C 0.7385442590330915 1.2693951998972774 0.524288162626054 0.0
C C 0.7448118001922224 1.2494707712020021 0.6222713591848753 0.0
H H 0.7473818001922222 1.1990407712020024 0.6390313591848753 0.0
C C 0.7449200245958085 1.309005122731454 0.755080598139353 0.0
H H 0.7457000245958085 1.2918851227314538 0.824850598139353 0.0
C C 0.842373778121451 1.4477776845320627 0.9736256046253398 0.0
H H 0.8159537781214509 1.4151476845320625 1.0077956046253396 0.0
C C 0.9282868517648306 1.449422965427148 1.0225256044878144 0.0
H H 0.9471668517648305 1.422492965427148 1.0830856044878143 0.0
C C 0.9490557581216797 1.4802695046966237 1.0054241292990713 0.0
C C 0.9471866862627482 1.518934672895473 0.8781802204750806 0.0
H H 0.9729566862627483 1.5511046728954727 0.8422402204750805 0.0
C C 0.8698405382806573 1.5209261270407095 0.8684650478703243 0.0
H H 0.8496205382806573 1.5472961270407093 0.8080250478703243 0.0
C C 0.6788957316536836 1.4077101015683096 0.9599738079467156 0.0
C C 0.6234515877334776 1.3553624108069937 1.0750182952482357 0.0
C C 0.5820101251220059 1.2852336697734241 1.0049380861405721 0.0
H H 0.5823901251220058 1.2713136697734244 0.9339080861405722 0.0
C C 0.5323735849705937 1.2737986848722778 1.1041257304714414 0.0
H H 0.5067535849705938 1.2334786848722779 1.0732857304714414 0.0
C C 0.5439836165325415 1.2664052036684734 1.172956486168244 0.0
C C 0.5747027352798594 1.3590205667179178 1.2200163279050227 0.0
H H 0.5718827352798594 1.3740905667179177 1.289786327905023 0.0
C C 0.6018925831527264 1.3965037679151104 1.1753024656389517 0.0
C C 0.6729831385676565 1.4324042218470163 1.2289055561274282 0.0
C C 0.5054522225143334 1.2445940728858191 1.27794924126538 0.0
C C 0.45247800071170696 1.1941853309810417 1.1920992607849483 0.0
F F 0.4128742757803929 1.2167983243613976 1.1078442119520657 0.0
F F 0.4566692232269248 1.1178209111914568 1.09661257105931 0.0
F F 0.4105535114480329 1.1584542800340865 1.266761570712298 0.0
N N 0.7345389168923615 1.375950403368088 0.7114741899580684 0.0
N N 0.803371637645063 1.4695117487776321 0.8969435983448123 0.0
O O 0.6746779328617922 1.4560719056568545 1.0105305772008137 0.0
O O 0.6902128354588895 1.3748924728006502 0.9262527134766715 0.0
O O 0.7083474866539149 1.4347819716370362 1.2089739362274212 0.0
O O 0.6341035455952556 1.494246175193811 1.247660467116829 0.0
Zn Zn 0.7195563462748625 1.4438257470540046 0.8512888676597247 0.0
C C 0.2646876294930528 1.3875180177012398 -0.12471861394674079 0.0
H H 0.2658076294930528 1.4380880177012398 -0.10978861394674079 0.0
C C 0.25529467434053904 1.3560879826425392 -0.0488410774736781 0.0
H H 0.2540146743405391 1.3747579826425391 0.019698922526321886 0.0
C C 0.2680574487884958 1.2785173437107067 -0.009515318053918781 0.0
C C 0.2608256177363588 1.262768732171736 -0.1471143054501345 0.0
H H 0.25825561773635874 1.2123387321717363 -0.16387430545013448 0.0
C C 0.23993874371701573 1.3142580371253991 -0.22200580827687658 0.0
H H 0.23915874371701573 1.2971380371253989 -0.29177580827687655 0.0
C C 0.14237542132689737 1.4368573703214014 -0.48837927586097823 0.0
H H 0.16879542132689737 1.4042273703214012 -0.5225492758609783 0.0
C C 0.08122269138828159 1.4429062460026485 -0.5341098220368938 0.0
H H 0.06234269138828157 1.4159762460026486 -0.5946698220368938 0.0
C C 0.049562207516988505 1.4916147299038949 -0.4931268678673159 0.0
C C 0.06859365440443184 1.519902056131465 -0.4043830814692931 0.0
H H 0.04282365440443183 1.552072056131465 -0.36844308146929317 0.0
C C 0.1490280014672195 1.5206017625672912 -0.35861767454818017 0.0
H H 0.16924800146721955 1.546971762567291 -0.29817767454818006 0.0
C C 0.3185200269408403 1.4155579992027636 -0.4968415049429991 0.0
C C 0.3906356853816023 1.3464785454763706 -0.5497055519378973 0.0
C C 0.4036723030996603 1.314316655010035 -0.5545386521790429 0.0
H H 0.40329230309966035 1.3003966550100352 -0.4835086521790428 0.0
C C 0.4790360085431294 1.240198465382242 -0.542048336919072 0.0
H H 0.5046560085431294 1.199878465382242 -0.511208336919072 0.0
C C 0.45280320997592505 1.2567640746987783 -0.7095841349052789 0.0
C C 0.43058227617485173 1.3482292233042992 -0.7195649137151103 0.0
H H 0.4334022761748515 1.363299223304299 -0.7893349137151104 0.0
C C 0.3703795917150536 1.3906052112357226 -0.630830712585739 0.0
C C 0.3109028938352519 1.4469706492806163 -0.7124410548751985 0.0
C C 0.5051736255583218 1.2280177938734302 -0.7062102699621874 0.0
C C 0.5481487328568315 1.1682370144431187 -0.6921492451617803 0.0
F F 0.6001214478557549 1.2213602244693476 -0.6088025021564081 0.0
F F 0.5225204495926955 1.1204040361957637 -0.6336899662009904 0.0
F F 0.6013866133253731 1.1503627692686198 -0.7453236316935176 0.0
N N 0.26137642234230113 1.3719743342450443 -0.22973493418674168 0.0
N N 0.1846401286345554 1.4762604635563175 -0.4310276180178978 0.0
O O 0.31829870008114464 1.4548591929681853 -0.5100511946332543 0.0
O O 0.30690616029347434 1.3817736712178932 -0.4369307272095395 0.0
O O 0.28264571990671045 1.432974626066254 -0.7404552639887214 0.0
O O 0.36824683808435626 1.4885951940792477 -0.7730901645145194 0.0
Zn Zn 0.27340608373491243 1.4528468117312707 -0.3309903709333922 0.0
C C -0.21214263344521442 -0.9078134928196707 -0.5962325144149461 0.0
H H -0.21102263344521438 -0.9583834928196706 -0.5813025144149461 0.0
C C -0.22438695547225715 -0.8582859007223335 -0.5254078122868355 0.0
H H -0.22566695547225715 -0.8769559007223335 -0.4568678122868355 0.0
C C -0.25592646485425047 -0.7865391893015096 -0.5511971388738707 0.0
C C -0.23969552342748493 -0.7520044809794022 -0.6380773835080864 0.0
H H -0.24226552342748492 -0.7015744809794022 -0.6548373835080863 0.0
C C -0.23924528370487377 -0.8023954835158437 -0.7052821128084611 0.0
H H -0.24002528370487375 -0.7852754835158435 -0.7750521128084611 0.0
C C -0.35761832406260785 -0.9340060341852432 -0.9360339355699101 0.0
H H -0.33119832406260785 -0.9013760341852434 -0.9702039355699101 0.0
C C -0.41264557531808443 -0.9347336370450262 -1.0101378717279121 0.0
H H -0.43152557531808433 -0.9078036370450261 -1.070697871727912 0.0
C C -0.4541197170391922 -1.0083512943659039 -0.9513761882574795 0.0
C C -0.43826484147950917 -1.0296262847324167 -0.8661439774924048 0.0
H H -0.4640348414795091 -1.0617962847324165 -0.8302039774924047 0.0
C C -0.3663915250690619 -1.0251019419567224 -0.8671000132248001 0.0
H H -0.34617152506906185 -1.0514719419567224 -0.8066600132248001 0.0
C C -0.16284415428582685 -0.911384422266407 -0.9952537572016825 0.0
C C -0.11949863124072105 -0.8603378961898334 -1.0345036020798573 0.0
C C -0.08259596066424345 -0.7996698451590787 -1.006686031678181 0.0
H H -0.08297596066424344 -0.7857498451590786 -0.9356560316781809 0.0
C C -0.03798143588946955 -0.7649182001257485 -1.0663505245462754 0.0
H H -0.012361435889469547 -0.7245982001257485 -1.0355105245462757 0.0
C C -0.04370083174021943 -0.7632963306894525 -1.1743610024055031 0.0
C C -0.08146093930626207 -0.8233796396284777 -1.209223573969619 0.0
H H -0.07864093930626209 -0.8384496396284776 -1.2789935739696194 0.0
C C -0.1277454940270045 -0.8690993696715938 -1.1698149432552956 0.0
C C -0.17954269785129462 -0.9458788688299985 -1.2386567250137202 0.0
C C -0.0044072687502731914 -0.7313715194076695 -1.278951283141398 0.0
C C 0.053247990669515306 -0.6846596425487431 -1.19567162699023 0.0
F F 0.07581507267251426 -0.7186670769529656 -1.1110726737128593 0.0
F F 0.027495833469585357 -0.635576518056392 -1.1119594226274319 0.0
F F 0.09435666721653338 -0.6270643998772598 -1.2507330203669509 0.0
N N -0.25067889233613955 -0.874532045543698 -0.7069771961047082 0.0
N N -0.31721420758703306 -0.9534687603156212 -0.9006005992705433 0.0
O O -0.18310010109191546 -0.9597978390072558 -1.014324354382362 0.0
O O -0.18705751482839023 -0.8701569866920843 -0.9129195539893501 0.0
O O -0.2485336363383589 -0.9304150529325546 -1.2337922371272332 0.0
O O -0.15887922984291758 -0.9695510074465988 -1.2777232034455115 0.0
Zn Zn -0.22227695160521105 -0.9519923543770947 -0.8499192006779421 0.0
C C 0.2454028467666065 -0.8986846044550073 0.08133693284314342 0.0
H H 0.2442828467666065 -0.9492546044550072 0.06640693284314343 0.0
C C 0.2384372745535597 -0.8415421789049893 0.03771797587948424 0.0
H H 0.2397172745535597 -0.8602121789049895 -0.030822024120515743 0.0
C C 0.23947253973685445 -0.787060675057561 0.01025392017934736 0.0
C C 0.24243416487883626 -0.7336170448861744 0.15880419018557299 0.0
H H 0.2450041648788363 -0.6831870448861744 0.17556419018557298 0.0
C C 0.21771305762785922 -0.8229593216888333 0.20269038069252035 0.0
H H 0.21849305762785917 -0.8058393216888332 0.2724603806925203 0.0
C C 0.37212039347221926 -0.9291750210050692 0.4812582812331197 0.0
H H 0.34570039347221926 -0.8965450210050694 0.5154282812331198 0.0
C C 0.4219902671312248 -0.9221714787405679 0.5327032237397361 0.0
H H 0.44087026713122474 -0.8952414787405679 0.5932632237397361 0.0
C C 0.4564882151031839 -1.0046761370673027 0.49026190244543266 0.0
C C 0.44135998485535216 -1.0329036287039457 0.4109943629673718 0.0
H H 0.4671299848553521 -1.0650736287039453 0.3750543629673718 0.0
C C 0.3585060508688062 -1.028438036057717 0.36485288131381566 0.0
H H 0.3382860508688062 -1.054808036057717 0.30441288131381566 0.0
C C 0.16356400864626924 -0.9118649721141577 0.4747310172832485 0.0
C C 0.1262930941099541 -0.8657784006013921 0.5362385636009467 0.0
C C 0.08530647459267193 -0.8023897156640976 0.5347028582234136 0.0
H H 0.08568647459267191 -0.7884697156640976 0.4636728582234135 0.0
C C 0.06600095873643332 -0.7848911960108301 0.5782691806308327 0.0
H H 0.04038095873643331 -0.7445711960108301 0.5474291806308327 0.0
C C 0.03603507854468728 -0.7813291701544348 0.6647713931555104 0.0
C C 0.09635377457876039 -0.8679148350268026 0.7248671557289275 0.0
H H 0.0935337745787604 -0.8829848350268025 0.7946371557289276 0.0
C C 0.12190285941616417 -0.891514752971192 0.6509022013393666 0.0
C C 0.14210294496664835 -0.909515024040774 0.7400128628143726 0.0
C C -0.008825726924008874 -0.7277098927971479 0.7670133995250696 0.0
C C -0.055926786314998575 -0.6864960837543548 0.6761691565972393 0.0
F F -0.08978203017768065 -0.7136597367019957 0.6209325025318966 0.0
F F -0.05445138708571031 -0.6015716321176993 0.6094663973041754 0.0
F F -0.10680068925007007 -0.6674393312074105 0.7445279128846272 0.0
N N 0.23790318803283983 -0.8803698061083358 0.20951537754403327 0.0
N N 0.3261521892901462 -0.9810494955740905 0.3912425568367642 0.0
O O 0.1676037619716482 -0.9616246510971835 0.5031879855720635 0.0
O O 0.19409582483044602 -0.84988939344392 0.42585612192370964 0.0
O O 0.2082188702282526 -0.9314345338094341 0.7370981721932379 0.0
O O 0.13209883998828761 -0.967566820344669 0.7769581525157694 0.0
Zn Zn 0.24251194233278103 -0.9506276066898551 0.3273448352417074 0.0
C C 0.26424360764162913 -0.39064692320493644 -0.6068816810586449 0.0
H H 0.2653636076416291 -0.44121692320493633 -0.5919516810586449 0.0
C C 0.2475667727327542 -0.35592190840878346 -0.5351924314792298 0.0
H H 0.24628677273275426 -0.3745919084087835 -0.46665243147922975 0.0
C C 0.24610778653105989 -0.26608089475585495 -0.549960498431637 0.0
C C 0.24030607779467023 -0.2589915089531916 -0.6249756042225042 0.0
H H 0.23773607779467018 -0.20856150895319167 -0.6417356042225042 0.0
C C 0.2587102043300537 -0.2919283969352741 -0.7127092840051212 0.0
H H 0.25793020433005365 -0.27480839693527415 -0.7824792840051212 0.0
C C 0.17481552241830806 -0.45073191841999305 -0.9691516476965093 0.0
H H 0.20123552241830805 -0.41810191841999306 -1.0033216476965092 0.0
C C 0.05782658897424755 -0.46592261665388807 -1.032055124425167 0.0
H H 0.038946588974247534 -0.43899261665388795 -1.092615124425167 0.0
C C 0.05979734985099458 -0.49298944636353087 -0.9691694393826418 0.0
C C 0.07948926981337437 -0.5408887320984853 -0.8755035491512515 0.0
H H 0.05371926981337437 -0.5730587320984851 -0.8395635491512514 0.0
C C 0.14284550856717124 -0.49760455754046357 -0.8245892672804189 0.0
H H 0.16306550856717128 -0.5239745575404636 -0.7641492672804188 0.0
C C 0.321950856367366 -0.39785910750872105 -1.0156809725596767 0.0
C C 0.37826351529187774 -0.32237026033213867 -1.0490213910935224 0.0
C C 0.4166110408020692 -0.3173449712087319 -0.9890346135225765 0.0
H H 0.41623104080206913 -0.30342497120873196 -0.9180046135225765 0.0
C C 0.47579116610582245 -0.26392501814915803 -1.0601056820313124 0.0
H H 0.5014111661058224 -0.223605018149158 -1.0292656820313124 0.0
C C 0.4579551838512865 -0.28997969641034727 -1.1925578492025661 0.0
C C 0.4406848699956593 -0.34249554874707966 -1.1763062614660182 0.0
H H 0.4435048699956592 -0.3575655487470796 -1.2460762614660186 0.0
C C 0.3741976750244096 -0.37381436293370124 -1.1711373703590744 0.0
C C 0.31674380125729246 -0.4430135962852249 -1.2149542808725964 0.0
C C 0.5091292223979461 -0.20995012613428427 -1.248743247498723 0.0
C C 0.5414843866498043 -0.16438660213963896 -1.1947698305307395 0.0
F F 0.606017213024055 -0.21697519439984883 -1.118924942571556 0.0
F F 0.5116723296295644 -0.10561372027021987 -1.1777204649898962 0.0
F F 0.6073447384544532 -0.1653182746780983 -1.2352221820065048 0.0
N N 0.27951718004094206 -0.3751873475560209 -0.7187154481675354 0.0
N N 0.1823358920661051 -0.49630041478270615 -0.8857563238593272 0.0
O O 0.3216385821040367 -0.47752056405135196 -0.9964007092943421 0.0
O O 0.31796149774947674 -0.3690514942517846 -0.916761455328054 0.0
O O 0.27390686838325873 -0.44321575861435414 -1.2435922747455794 0.0
O O 0.33175290754915643 -0.4703785947425216 -1.2831087597398618 0.0
Zn Zn 0.29036832103499455 -0.45746783031986976 -0.8171951196327787 0.0
C C 0.7198602937054911 -0.43146081631828603 0.07826649505533542 0.0
H H 0.7187402937054911 -0.48203081631828604 0.06333649505533542 0.0
C C 0.7399172830252375 -0.3454596539727922 0.034339740728622004 0.0
H H 0.7411972830252375 -0.3641296539727923 -0.03420025927137798 0.0
C C 0.7525400039867925 -0.2783893599263987 0.019358122184167145 0.0
C C 0.7658479197783338 -0.24567944300211672 0.15404331345166197 0.0
H H 0.7684179197783337 -0.19524944300211675 0.17080331345166197 0.0
C C 0.7487011924002832 -0.28168326615872125 0.19014737037269666 0.0
H H 0.7494811924002831 -0.2645632661587212 0.25991737037269663 0.0
C C 0.8573252894309046 -0.4357111580426653 0.4937505729765351 0.0
H H 0.8309052894309045 -0.4030811580426653 0.527920572976535 0.0
C C 0.8959024912819183 -0.47765283593759134 0.5215304978387401 0.0
H H 0.9147824912819185 -0.4507228359375913 0.58209049783874 0.0
C C 0.9511457724398142 -0.4948810073239374 0.4921197485617051 0.0
C C 0.9356625189780884 -0.5472952927059302 0.40213760919284885 0.0
H H 0.9614325189780886 -0.5794652927059301 0.36619760919284894 0.0
C C 0.8586487424430124 -0.5067734183667564 0.36183756390257893 0.0
H H 0.8384287424430125 -0.5331434183667564 0.3013975639025788 0.0
C C 0.6673051318339238 -0.39771016373341694 0.5006243083325694 0.0
C C 0.6176260472419371 -0.3754045069988544 0.5312958679208432 0.0
C C 0.6010282737130032 -0.30762234915282294 0.5042041323514173 0.0
H H 0.601408273713003 -0.29370234915282306 0.43317413235141716 0.0
C C 0.5443485481678814 -0.25973773887845986 0.5686598239739616 0.0
H H 0.5187285481678814 -0.2194177388784598 0.5378198239739617 0.0
C C 0.5455933635122429 -0.2641149303194012 0.6829472390043169 0.0
C C 0.5802140477130577 -0.3391295877259242 0.7232193295477473 0.0
H H 0.5773940477130578 -0.3541995877259242 0.7929893295477474 0.0
C C 0.6220047406874937 -0.3646057807911827 0.7022084349739713 0.0
C C 0.6689001327484029 -0.4478455523744742 0.6891517082155012 0.0
C C 0.5088390145732451 -0.22261845221126325 0.7549774875645091 0.0
C C 0.43388552669456 -0.16786045475858066 0.6773321723639248 0.0
F F 0.3959308541731696 -0.21439710270605827 0.6116111817097346 0.0
F F 0.4585566343234169 -0.11767965054573766 0.6217094190214254 0.0
F F 0.41303352621771006 -0.1662653032983297 0.729887534235872 0.0
N N 0.7403003785250624 -0.36516456538432845 0.19976521617429344 0.0
N N 0.8105222119690723 -0.479087875297275 0.37808921052516614 0.0
O O 0.6826232928698157 -0.47002321922857476 0.5286504062347434 0.0
O O 0.6768988264810277 -0.373183460938902 0.41464668704998514 0.0
O O 0.7171077553947852 -0.4195200866293906 0.70176825761343 0.0
O O 0.6409638064367337 -0.465706741898665 0.7794969482339862 0.0
Zn Zn 0.7158530117612327 -0.4477265621487378 0.3137562769489063 0.0
