_cell_length_a 19.5206
_cell_length_b 17.9856
_cell_length_c 12.6054
_cell_angle_alpha 90.0
_cell_angle_beta 99.0355
_cell_angle_gamma 90.0
_symmetry_space_group_name_H-M         'P 1'
_symmetry_Int_Tables_number            1
loop_
_symmetry_equiv_pos_as_xyz
   'x, y, z'
                         
loop_
_atom_site_label
_atom_site_type_symbol
_atom_site_fract_x 
_atom_site_fract_y
_atom_site_fract_z
_atom_site_charge
C C 0.22884777276446047 0.9301627132885737 0.6017772956063299 0.0
H H 0.22772777276446046 0.9807327132885736 0.5868472956063299 0.0
C C 0.2577958611259066 0.8621542531726113 0.5235131814431837 0.0
H H 0.2590758611259066 0.8808242531726115 0.4549731814431837 0.0
C C 0.24026746447859343 0.7834828252510352 0.5530724359367014 0.0
C C 0.25542373501853777 0.7550670624170036 0.6670469431946061 0.0
H H 0.2579937350185378 0.7046370624170035 0.6838069431946061 0.0
C C 0.25362102859171326 0.8152851388949931 0.7248393212998825 0.0
H H 0.25440102859171326 0.7981651388949931 0.7946093212998825 0.0
C C 0.35578175060420203 0.9366946158718904 0.9790702127648642 0.0
H H 0.32936175060420203 0.9040646158718906 1.013240212764864 0.0
C C 0.40882370646815847 0.9535398180972663 1.0152453680977946 0.0
H H 0.4277037064681584 0.9266098180972663 1.0758053680977946 0.0
C C 0.4698404312518253 0.9837312294767987 0.9917004162891763 0.0
C C 0.42748520271037177 1.057922413197894 0.8737722375905689 0.0
H H 0.4532552027103716 1.0900924131978937 0.8378322375905688 0.0
C C 0.35822135551927764 1.026874728167941 0.8371869718983369 0.0
H H 0.3380013555192776 1.053244728167941 0.7767469718983367 0.0
C C 0.16787633464178042 0.894940890826613 0.9908012642309436 0.0
C C 0.1531423460190136 0.8702388798773951 1.0787183944880974 0.0
C C 0.07938438341650407 0.7902673410061408 1.0066246443897204 0.0
H H 0.07976438341650405 0.7763473410061408 0.9355946443897205 0.0
C C 0.05634811607497329 0.7651838333450813 1.0936531893458978 0.0
H H 0.030728116074973295 0.7248638333450813 1.062813189345898 0.0
C C 0.047243082536452354 0.7979292081561283 1.17778996369947 0.0
C C 0.10016727255423304 0.8283997957369971 1.2335522297147217 0.0
H H 0.09734727255423306 0.843469795736997 1.3033222297147218 0.0
C C 0.1123045301342835 0.9059639244408074 1.1685789003093896 0.0
C C 0.17362117062442833 0.9299844301484289 1.2180896803636538 0.0
C C 0.006031623716369427 0.7133707129849665 1.2827500844690676 0.0
C C -0.057284509263980335 0.6698881238246726 1.18472549105945 0.0
F F -0.10246181508711619 0.7302929181001806 1.1387467107377611 0.0
F F -0.025552145394494383 0.6396982245045348 1.1407352481302389 0.0
F F -0.10978167997690062 0.6620980763852143 1.233655958216965 0.0
N N 0.2391068298695602 0.881932837002907 0.716309516936152 0.0
N N 0.32473912486708 0.9842238995852015 0.8964985186463983 0.0
O O 0.17492285735306762 0.9710233076815221 1.026133141097399 0.0
O O 0.18166236695246382 0.8700095506448957 0.9216519093351659 0.0
O O 0.2357982807314444 0.9219958432581122 1.2227598830732114 0.0
O O 0.1531240316941704 0.9658514299726533 1.2499225921798687 0.0
Zn Zn 0.22926657671462028 0.944217175867531 0.8059032407927769 0.0
C C -0.25233912976814227 0.8765499089674842 -0.09471545676685504 0.0
H H -0.2512191297681423 0.9271199089674843 -0.07978545676685504 0.0
C C -0.22697547195213658 0.8555451078505159 -0.03838534887010156 0.0
H H -0.22825547195213658 0.8742151078505159 0.030154651129898423 0.0
C C -0.24809406991603855 0.7921318383636843 -0.041938571523742696 0.0
C C -0.2338221249567005 0.7468857341023185 -0.17153333067503007 0.0
H H -0.23639212495670048 0.6964557341023184 -0.18829333067503007 0.0
C C -0.24464851875819854 0.8260813417044134 -0.22457763551650542 0.0
H H -0.24542851875819852 0.8089613417044134 -0.2943476355165054 0.0
C C -0.3509184532535632 0.9406870644276993 -0.4971347483093227 0.0
H H -0.3244984532535632 0.9080570644276994 -0.5313047483093227 0.0
C C -0.42532808863180505 0.9492065417254176 -0.5420694260918357 0.0
H H -0.444208088631805 0.9222765417254176 -0.6026294260918357 0.0
C C -0.4378687087630354 0.9866714474085284 -0.468218418954851 0.0
C C -0.4097956226319156 1.011701910991977 -0.372899034819725 0.0
H H -0.4355656226319155 1.0438719109919767 -0.336959034819725 0.0
C C -0.3443757085735932 1.014347094312592 -0.33919072553027835 0.0
H H -0.32415570857359316 1.040717094312592 -0.27875072553027824 0.0
C C -0.1612340029397214 0.8806329753456902 -0.4768129320567859 0.0
C C -0.12120948984927647 0.8499834660699943 -0.57040534338872 0.0
C C -0.09432997540576453 0.8012158583693976 -0.5248667384988361 0.0
H H -0.09470997540576451 0.7872958583693976 -0.45383673849883605 0.0
C C -0.028611895273193706 0.7610055431882996 -0.551886458842596 0.0
H H -0.0029918952731937056 0.7206855431882995 -0.521046458842596 0.0
C C -0.0337035681209888 0.7805024253051609 -0.6720105147152485 0.0
C C -0.09109190153487598 0.8487192936673986 -0.7339144890940946 0.0
H H -0.08827190153487599 0.8637892936673985 -0.8036844890940947 0.0
C C -0.14186353360591772 0.9005631274126953 -0.6762974526172557 0.0
C C -0.1680033713440705 0.9528212246017893 -0.7353561967673925 0.0
C C 0.009258435047109237 0.7383253019786383 -0.7395179945301077 0.0
C C 0.07052973008037206 0.6870632830758172 -0.678950926684366 0.0
F F 0.07322866477920391 0.7119108321544146 -0.6273326408522081 0.0
F F 0.01943533356814425 0.6241290716938277 -0.634011897555179 0.0
F F 0.0758618534444343 0.644274967379597 -0.7373922647736436 0.0
N N -0.24746764231497692 0.8845168022368953 -0.23325307785574084 0.0
N N -0.3218180950410303 0.9762450412307956 -0.40194382616753116 0.0
O O -0.15790176954105128 0.9683378575816036 -0.5129217869840842 0.0
O O -0.19655927305733809 0.8565083375697006 -0.4333892468563394 0.0
O O -0.22251731676862463 0.9233049216067132 -0.7175720718079307 0.0
O O -0.13166611852135643 0.9907728459112084 -0.7596306570943286 0.0
Zn Zn -0.2092164280202847 0.96508239090579 -0.32811890014086903 0.0
C C 0.7366535277954774 1.3823808245536733 0.6066147505766653 0.0
H H 0.7355335277954774 1.432950824553673 0.5916847505766653 0.0
C C 0.7126602161188906 1.3403121954623842 0.49229878288972195 0.0
H H 0.7139402161188907 1.358982195462384 0.42375878288972196 0.0
C C 0.7432058572156538 1.2775961602406236 0.5497638515284419 0.0
C C 0.7360187937789147 1.2609686676254068 0.6378011128562988 0.0
H H 0.7385887937789144 1.2105386676254069 0.6545611128562989 0.0
C C 0.739438307095799 1.3120164880489786 0.7302416223572706 0.0
H H 0.7402183070957989 1.2948964880489784 0.8000116223572706 0.0
C C 0.8453051829387176 1.4506562404429726 1.008756595974504 0.0
H H 0.8188851829387176 1.4180262404429727 1.042926595974504 0.0
C C 0.9225780238194479 1.4500612962765225 1.034408924243237 0.0
H H 0.9414580238194479 1.4231312962765226 1.094968924243237 0.0
C C 0.9572003164313888 1.4891080904109126 0.9805541223584764 0.0
C C 0.9210181794093403 1.5503453806015843 0.9012353451107474 0.0
H H 0.9467881794093405 1.5825153806015844 0.8652953451107473 0.0
C C 0.8509197984387616 1.4980831307107172 0.8590128989945611 0.0
H H 0.8306997984387615 1.5244531307107172 0.7985728989945611 0.0
C C 0.6549794635328582 1.3930789040729719 1.0037766691125571 0.0
C C 0.6303410145957692 1.3446256590197974 1.062812197521618 0.0
C C 0.575279866277179 1.3014223421659865 1.0248200609550857 0.0
H H 0.5756598662771789 1.2875023421659866 0.9537900609550858 0.0
C C 0.5472441218455315 1.2440782805248605 1.0976496317582418 0.0
H H 0.5216241218455315 1.2037582805248608 1.0668096317582418 0.0
C C 0.5376115998735417 1.264646791449811 1.1704030153893272 0.0
C C 0.5762411468725398 1.364763660367492 1.2222472618200948 0.0
H H 0.5734211468725399 1.3798336603674919 1.2920172618200951 0.0
C C 0.6235416915372893 1.3961832038566921 1.160839901508535 0.0
C C 0.6815785462503264 1.4375426029394018 1.2187365750571866 0.0
C C 0.5076645474210276 1.2390945925841952 1.2465305730951453 0.0
C C 0.443996279156224 1.17928088728998 1.1792009721552958 0.0
F F 0.4023730571664857 1.2180574942619598 1.0917413031459575 0.0
F F 0.4775197948727887 1.1122665312799032 1.131877652475895 0.0
F F 0.3973106206798327 1.1566246742911166 1.2531448226787494 0.0
N N 0.7305405300614644 1.3745410831248237 0.7018255580624778 0.0
N N 0.8179285375478693 1.4895968424945845 0.8910571197136615 0.0
O O 0.656961730143449 1.4796248444138058 1.0119951771183429 0.0
O O 0.6960626173694726 1.3546624896209332 0.9169608243461161 0.0
O O 0.7332031604959572 1.4526532704130768 1.231377735088971 0.0
O O 0.6320483169449743 1.4820622538202115 1.2697890787367563 0.0
Zn Zn 0.7008787384563556 1.4624709478640168 0.8063069522390444 0.0
C C 0.26257676795092455 1.4136965189805613 -0.12005869316156115 0.0
H H 0.2636967679509246 1.4642665189805613 -0.10512869316156116 0.0
C C 0.25976956228339376 1.3408578485539702 0.022199276834884128 0.0
H H 0.2584895622833938 1.3595278485539701 0.09073927683488411 0.0
C C 0.2600433917318637 1.2871456902570189 -0.012771607705324983 0.0
C C 0.249996411196926 1.265737113101462 -0.148273853596578 0.0
H H 0.24742641119692596 1.215307113101462 -0.165033853596578 0.0
C C 0.23684150540565513 1.311596121342383 -0.20815522453451651 0.0
H H 0.2360615054056551 1.294476121342383 -0.27792522453451646 0.0
C C 0.15313305323482687 1.4406958013591555 -0.47986207086627675 0.0
H H 0.17955305323482687 1.4080658013591554 -0.5140320708662768 0.0
C C 0.09591727280571012 1.4197925982552844 -0.5698151216023383 0.0
H H 0.07703727280571011 1.3928625982552847 -0.6303751216023382 0.0
C C 0.038304060074563766 1.4995492567071538 -0.4953419169352175 0.0
C C 0.07774835004148231 1.5379018852921813 -0.3917647726144099 0.0
H H 0.051978350041482276 1.5700718852921811 -0.35582477261441 0.0
C C 0.12522513883607733 1.5069461256467411 -0.3432272654435311 0.0
H H 0.14544513883607738 1.533316125646741 -0.28278726544353106 0.0
C C 0.3207064035430118 1.3939993309361962 -0.4913393678848817 0.0
C C 0.3719998162697243 1.3607448178644244 -0.5407181617670515 0.0
C C 0.4153127670895864 1.271086331367771 -0.4751652883634733 0.0
H H 0.41493276708958643 1.2571663313677712 -0.40413528836347323 0.0
C C 0.44858199994516956 1.2530097406753842 -0.5483239687950157 0.0
H H 0.47420199994516965 1.2126897406753843 -0.5174839687950157 0.0
C C 0.4692253324020855 1.2844048565307489 -0.6704990229883125 0.0
C C 0.43015210323465486 1.3444180076740777 -0.7312203059998947 0.0
H H 0.43297210323465474 1.3594880076740776 -0.8009903059998948 0.0
C C 0.3812523135229392 1.359613761541245 -0.6685657204761498 0.0
C C 0.31816216226460886 1.4346627192372619 -0.7195373344890525 0.0
C C 0.49495134761397486 1.2262682849553042 -0.7638314757287235 0.0
C C 0.5500162084871334 1.1783340523444459 -0.705995386417118 0.0
F F 0.5983862253701648 1.2000899019690152 -0.5980979903693527 0.0
F F 0.5286413993069004 1.1253935167804108 -0.6271492509096723 0.0
F F 0.6183392138238248 1.136597556684463 -0.7210131201812053 0.0
N N 0.2590369166621975 1.3762992450723097 -0.23230270322448898 0.0
N N 0.20416201955505575 1.481392740350568 -0.39821447396052867 0.0
O O 0.32286091706207326 1.4743381275270893 -0.4990107921381324 0.0
O O 0.30628482353519826 1.381576618550902 -0.40949314781982726 0.0
O O 0.2840581337439571 1.4519131928701008 -0.7228633950251517 0.0
O O 0.36685281554448596 1.4860791059044132 -0.7791327786349082 0.0
Zn Zn 0.28482395119451903 1.4389967044637053 -0.3184455180724423 0.0
C C -0.21808449305322286 -0.9132706029442026 -0.5933325250663051 0.0
H H -0.21696449305322282 -0.9638406029442026 -0.578402525066305 0.0
C C -0.24987546016651935 -0.8577645157629246 -0.5269920728920502 0.0
H H -0.25115546016651935 -0.8764345157629247 -0.45845207289205014 0.0
C C -0.2522942014211577 -0.7721230589862453 -0.5168491033043541 0.0
C C -0.25279681648738556 -0.7553435610424837 -0.644690337724141 0.0
H H -0.2553668164873856 -0.7049135610424837 -0.661450337724141 0.0
C C -0.24940663491421666 -0.8129613090769937 -0.7361249889761857 0.0
H H -0.2501866349142166 -0.7958413090769937 -0.8058949889761857 0.0
C C -0.35060531674363415 -0.9327997773701848 -1.0176626725671636 0.0
H H -0.32418531674363416 -0.9001697773701849 -1.0518326725671636 0.0
C C -0.4107390632029081 -0.9424650966889032 -0.9736868596241576 0.0
H H -0.42961906320290805 -0.9155350966889032 -1.0342468596241574 0.0
C C -0.4689559732353983 -1.0064817623118465 -0.9838785800065359 0.0
C C -0.4343333240089097 -1.032582101447049 -0.8911894988430434 0.0
H H -0.4601033240089096 -1.064752101447049 -0.8552494988430434 0.0
C C -0.3663508233936515 -1.0291873013438984 -0.8437952840180215 0.0
H H -0.3461308233936515 -1.0555573013438984 -0.7833552840180213 0.0
C C -0.18960970373238664 -0.8799195558271421 -1.001824154830356 0.0
C C -0.11864751426135556 -0.8552126087185615 -1.093987646352356 0.0
C C -0.08046384914928945 -0.7829046593459692 -1.0118947464945307 0.0
H H -0.08084384914928944 -0.7689846593459692 -0.9408647464945308 0.0
C C -0.03611345288075137 -0.7535770573793699 -1.0599934782018972 0.0
H H -0.010493452880751368 -0.7132570573793698 -1.0291534782018974 0.0
C C -0.04756255271524296 -0.7528269983649761 -1.1844185782704855 0.0
C C -0.07766443664628625 -0.8496674921112012 -1.2272618736474596 0.0
H H -0.07484443664628627 -0.8647374921112011 -1.29703187364746 0.0
C C -0.11908366339639974 -0.880995675252859 -1.1659837625359193 0.0
C C -0.15980982337281358 -0.9323982476108955 -1.2245062792652464 0.0
C C 0.002415530728229107 -0.7283474474275532 -1.2309195325784343 0.0
C C 0.03634162052619289 -0.6778274743772063 -1.214697302116399 0.0
F F 0.10179028567299284 -0.7222059038739587 -1.1166646705166452 0.0
F F 0.033382804476248064 -0.625616992984885 -1.1414673530742312 0.0
F F 0.09061048832155137 -0.6479674558505537 -1.2589723860214599 0.0
N N -0.23443945118501616 -0.8807777782104895 -0.6899708304879801 0.0
N N -0.3206771652008081 -0.9766134993758059 -0.9184338150189513 0.0
O O -0.15761531194692555 -0.966523769020446 -1.0038395929759696 0.0
O O -0.19428748330241336 -0.8721515297674641 -0.9141181704678218 0.0
O O -0.2337717099486035 -0.9325236586435711 -1.1769991334878973 0.0
O O -0.1462323226440674 -0.9805744467899055 -1.2576189501609638 0.0
Zn Zn -0.22211121782273438 -0.9619000131895138 -0.8236063017526196 0.0
C C 0.2556217034450616 -0.8839517289086781 0.11078003161934455 0.0
H H 0.25450170344506157 -0.9345217289086779 0.09585003161934455 0.0
C C 0.2524246241540831 -0.8550828914591229 0.039025464709740915 0.0
H H 0.2537046241540832 -0.8737528914591229 -0.02951453529025907 0.0
C C 0.23279989516441643 -0.7811213505691138 0.027681406411353714 0.0
C C 0.23722179942264215 -0.7300148096831547 0.15373318961622234 0.0
H H 0.23979179942264212 -0.6795848096831546 0.1704931896162223 0.0
C C 0.23257974073309104 -0.8018114955660433 0.22163828916031078 0.0
H H 0.23335974073309096 -0.7846914955660431 0.29140828916031075 0.0
C C 0.3446153952950679 -0.9362837940311669 0.48065220862640806 0.0
H H 0.31819539529506796 -0.903653794031167 0.514822208626408 0.0
C C 0.4180342875180493 -0.9487112816639058 0.5154965951759267 0.0
H H 0.4369142875180492 -0.9217812816639057 0.5760565951759267 0.0
C C 0.48006747512722775 -1.0221594054435503 0.49121785749310737 0.0
C C 0.43699227063902524 -1.0313894596215254 0.39578772421058833 0.0
H H 0.46276227063902514 -1.0635594596215252 0.35984772421058836 0.0
C C 0.35208268197703596 -1.0177830443660631 0.34402417984024464 0.0
H H 0.33186268197703594 -1.0441530443660632 0.2835841798402446 0.0
C C 0.14579470341941692 -0.8945968061391848 0.4930395262314682 0.0
C C 0.1339098529174369 -0.8768642970469299 0.5489149304191873 0.0
C C 0.08094503507328202 -0.8074643503659489 0.5178507931980431 0.0
H H 0.081325035073282 -0.793544350365949 0.44682079319804296 0.0
C C 0.04181016872918843 -0.7553426467150105 0.5579738916248933 0.0
H H 0.016190168729188426 -0.7150226467150104 0.5271338916248933 0.0
C C 0.037544790853851207 -0.767195589744911 0.6718692200815136 0.0
C C 0.07302576281800147 -0.8124538330903166 0.732336508087496 0.0
H H 0.07020576281800148 -0.8275238330903165 0.8021065080874961 0.0
C C 0.12791461648465788 -0.9065538485917617 0.6559053497433759 0.0
C C 0.16339466157690288 -0.9242524422756314 0.7158863487268293 0.0
C C -0.007012424957295288 -0.7389979463509464 0.7384108987307876 0.0
C C -0.06628393142904264 -0.6729260786814881 0.6800669764532122 0.0
F F -0.08176112656902414 -0.7176318681977588 0.5968276699887549 0.0
F F -0.04043360945087202 -0.61528302410814 0.6329819831849337 0.0
F F -0.10110065456201901 -0.6516352253167392 0.7591337262382478 0.0
N N 0.25532518326796455 -0.8682818496239937 0.209954010091895 0.0
N N 0.31995450499304906 -0.9477076246477104 0.4041311390661349 0.0
O O 0.16289187967566954 -1.0058458761271918 0.46561877896014264 0.0
O O 0.1878940496347136 -0.863102930361584 0.410120610904762 0.0
O O 0.22606371261401637 -0.9361881081648277 0.7524560998705194 0.0
O O 0.1354714824742969 -0.9668495886066053 0.7677446337971868 0.0
Zn Zn 0.23548066062471265 -0.9430771354669757 0.3337416466952579 0.0
C C 0.2653889188362768 -0.41272001749779097 -0.5946438558276461 0.0
H H 0.26650891883627675 -0.46329001749779086 -0.5797138558276461 0.0
C C 0.25381657203249464 -0.3350233466241523 -0.5271400732139908 0.0
H H 0.25253657203249474 -0.3536933466241523 -0.4586000732139908 0.0
C C 0.2808927210332347 -0.2952165056082292 -0.5224253155554921 0.0
C C 0.2567459243346233 -0.2670319583494255 -0.6311710933958935 0.0
H H 0.25417592433462327 -0.21660195834942556 -0.6479310933958935 0.0
C C 0.25636236027497655 -0.29344965677500257 -0.7389141841480863 0.0
H H 0.2555823602749766 -0.2763296567750026 -0.8086841841480863 0.0
C C 0.1471465050178171 -0.4447171266972979 -0.9516775829470764 0.0
H H 0.17356650501781706 -0.4120871266972979 -0.9858475829470764 0.0
C C 0.08291898763871099 -0.4561177674125026 -1.0148017163133658 0.0
H H 0.06403898763871096 -0.4291877674125025 -1.0753617163133655 0.0
C C 0.03617260946042232 -0.48130736786084316 -0.9625267460476422 0.0
C C 0.06116750553113583 -0.5281137245352882 -0.9056852898599941 0.0
H H 0.03539750553113581 -0.5602837245352879 -0.869745289859994 0.0
C C 0.1495400997038009 -0.5142893215235825 -0.8488589214557716 0.0
H H 0.169760099703801 -0.5406593215235825 -0.7884189214557715 0.0
C C 0.35035828701896615 -0.3928204775514954 -0.9678427130994113 0.0
C C 0.36530375844028246 -0.36085016679366255 -1.0340728583766399 0.0
C C 0.43042614776060195 -0.3160813172984192 -0.9946414211918522 0.0
H H 0.43004614776060196 -0.3021613172984193 -0.9236114211918522 0.0
C C 0.46494076469824996 -0.2580928353517825 -1.098421779681872 0.0
H H 0.49056076469824983 -0.21777283535178255 -1.067581779681872 0.0
C C 0.4647139348616773 -0.29569782678591916 -1.1846933633183676 0.0
C C 0.43161642807212297 -0.3343754095951287 -1.2383169861983199 0.0
H H 0.43443642807212285 -0.3494454095951286 -1.3080869861983202 0.0
C C 0.36511883881160717 -0.36113039683518305 -1.148566330400299 0.0
C C 0.3507019882555203 -0.4331642394419573 -1.1899466378307797 0.0
C C 0.5075003529296576 -0.23619821796222126 -1.2307064108475432 0.0
C C 0.5419881001017718 -0.1844332373755646 -1.1927086811355871 0.0
F F 0.5728767168820276 -0.20346411166085593 -1.1003807918110424 0.0
F F 0.5442571699593298 -0.14085827055497666 -1.1269586917864434 0.0
F F 0.589002547395697 -0.16814112818991792 -1.2720669659368204 0.0
N N 0.2641771853747312 -0.38076093031828967 -0.6954478701090521 0.0
N N 0.185727480890977 -0.47546389458936034 -0.9017271828876905 0.0
O O 0.3304313654359897 -0.46764485436097747 -0.9922927942100098 0.0
O O 0.3113386082116852 -0.37061027522315143 -0.9380132746172617 0.0
O O 0.29594158661310593 -0.42388121271369605 -1.222447888130935 0.0
O O 0.3526784754006542 -0.4713513714429775 -1.2841171289039601 0.0
Zn Zn 0.26597674022124645 -0.44333076530760734 -0.8489364596994728 0.0
C C 0.735482567720961 -0.40432779908230965 0.10733595606218187 0.0
H H 0.7343625677209611 -0.45489779908230954 0.09240595606218187 0.0
C C 0.7558569418573547 -0.33926362695007445 0.023680645754018473 0.0
H H 0.7571369418573548 -0.3579336269500745 -0.0448593542459815 0.0
C C 0.7456592537576406 -0.2838969940478347 0.049228707746083594 0.0
C C 0.7570396575700712 -0.267251797836923 0.16689705175790184 0.0
H H 0.7596096575700712 -0.21682179783692304 0.18365705175790184 0.0
C C 0.7423412431213571 -0.3194649629658412 0.23959845067775318 0.0
H H 0.7431212431213571 -0.3023449629658412 0.30936845067775315 0.0
C C 0.8531107384207719 -0.4479755146526916 0.49489946005207086 0.0
H H 0.8266907384207718 -0.4153455146526916 0.5290694600520709 0.0
C C 0.9137740885300725 -0.4444780091109647 0.5321910524576433 0.0
H H 0.9326540885300725 -0.41754800911096474 0.5927510524576433 0.0
C C 0.9495865940227669 -0.48916676182611735 0.48884857883865807 0.0
C C 0.9038814085060152 -0.5302916133375561 0.3642884141847853 0.0
H H 0.9296514085060152 -0.5624616133375558 0.32834841418478533 0.0
C C 0.85336147421636 -0.5269074094092143 0.3373918077446142 0.0
H H 0.8331414742163601 -0.5532774094092143 0.27695180774461414 0.0
C C 0.6673814024976418 -0.40881185293050326 0.49776491748904644 0.0
C C 0.6191850417972729 -0.37419755993833337 0.5577434813997223 0.0
C C 0.5828388131469242 -0.2850933343795967 0.503867590218492 0.0
H H 0.583218813146924 -0.27117333437959684 0.432837590218492 0.0
C C 0.5534478310802095 -0.27442310539452136 0.5518668268523568 0.0
H H 0.5278278310802094 -0.23410310539452142 0.5210268268523568 0.0
C C 0.5305535145480978 -0.2790709997635745 0.6776986347707865 0.0
C C 0.5624872255452078 -0.33335619755694756 0.7456663682758908 0.0
H H 0.559667225545208 -0.3484261975569475 0.815436368275891 0.0
C C 0.6214370684303686 -0.3642531344129828 0.6619182577966607 0.0
C C 0.6445442055323011 -0.42663735870634123 0.7024678395743176 0.0
C C 0.48630813860887767 -0.24217437845949563 0.7519063627739706 0.0
C C 0.4586847113637772 -0.17508402932862907 0.7094065157983633 0.0
F F 0.3996083564028925 -0.23359363000310784 0.6064315741936334 0.0
F F 0.47452549327219684 -0.14845770026324054 0.6275707128709265 0.0
F F 0.40631550536461525 -0.15166134238619525 0.7464175648712871 0.0
N N 0.7291087734465844 -0.3839207238931035 0.2427405628171054 0.0
N N 0.8057577963793459 -0.46881151916904207 0.39532274380398025 0.0
O O 0.6641045106085031 -0.4512570603740173 0.508489666224797 0.0
O O 0.6955040185840843 -0.37611430813617913 0.45154330865632514 0.0
O O 0.7151527431541301 -0.4290165779681897 0.677914896885327 0.0
O O 0.6264946643192483 -0.49150312124413875 0.7697118745176407 0.0
Zn Zn 0.7321498488685548 -0.4509201455017556 0.35677672548120487 0.0
