_cell_length_a 19.5206
_cell_length_b 17.9856
_cell_length_c 12.6054
_cell_angle_alpha 90.0
_cell_angle_beta 99.0355
_cell_angle_gamma 90.0
_symmetry_space_group_name_H-M         'P 1'
_symmetry_Int_Tables_number            1
loop_
_symmetry_equiv_pos_as_xyz
   'x, y, z'
                         
loop_
_atom_site_label
_atom_site_type_symbol
_atom_site_fract_x 
_atom_site_fract_y
_atom_site_fract_z
_atom_site_charge
C C 0.21953445490754442 0.9179023021327398 0.5766965682263583 0.0
H H 0.21841445490754438 0.9684723021327397 0.5617665682263583 0.0
C C 0.23755172950402914 0.8330594322609306 0.5244083250427807 0.0
H H 0.23883172950402917 0.8517294322609307 0.45586832504278063 0.0
C C 0.25779975912499586 0.7605460709020294 0.5476498709134773 0.0
C C 0.25430823186031276 0.7469505895635463 0.6663082509438738 0.0
H H 0.2568782318603128 0.6965205895635462 0.6830682509438738 0.0
C C 0.2395717336257834 0.8080909863613359 0.7111222299660545 0.0
H H 0.2403517336257834 0.7909709863613359 0.7808922299660545 0.0
C C 0.36464960743260716 0.9201948999838272 1.0021685114217953 0.0
H H 0.33822960743260716 0.8875648999838274 1.0363385114217953 0.0
C C 0.41573714726329153 0.9449440160289286 1.0191352120794939 0.0
H H 0.4346171472632915 0.9180140160289286 1.0796952120794938 0.0
C C 0.455900901132061 1.0205294206903373 0.9525161465670918 0.0
C C 0.42752084370989424 1.0467552077775655 0.8809604705649942 0.0
H H 0.45329084370989414 1.0789252077775653 0.8450204705649941 0.0
C C 0.3546407712371528 1.0181338600093017 0.8533875968035209 0.0
H H 0.33442077123715275 1.044503860009302 0.7929475968035208 0.0
C C 0.16033504191813386 0.8968774379643055 1.0023626481099672 0.0
C C 0.11390105271139227 0.880786509699296 1.081285094600708 0.0
C C 0.09921687575003064 0.7961695562619795 1.0300700610720224 0.0
H H 0.09959687575003062 0.7822495562619795 0.9590400610720224 0.0
C C 0.03869266901966135 0.7607470278697925 1.0362922075624685 0.0
H H 0.013072669019661344 0.7204270278697925 1.0054522075624686 0.0
C C 0.04500055034272343 0.7768967696254646 1.2021826993448899 0.0
C C 0.0758929288298911 0.8374623654659641 1.2404929389676056 0.0
H H 0.07307292882989112 0.852532365465964 1.310262938967606 0.0
C C 0.10596680519046568 0.8996153972760806 1.1848611318255309 0.0
C C 0.1793519606306076 0.92551569579659 1.2187738590873112 0.0
C C 0.007045215960570196 0.7289625733121884 1.2459832230849064 0.0
C C -0.047468004558195456 0.6656730737081349 1.2094921172624056 0.0
F F -0.08910960673110489 0.6985132756867893 1.1084100281257117 0.0
F F -0.03654577445306157 0.6221264218073376 1.1252046105534652 0.0
F F -0.09536242926311007 0.6486294392205175 1.2489894015576348 0.0
N N 0.22038313081221 0.8806867963457699 0.6918266103375539 0.0
N N 0.3308773386926377 0.9745774904579492 0.901065827431228 0.0
O O 0.17049719530048354 0.9446339730159631 0.999163508380369 0.0
O O 0.20640923715414927 0.8646074163415503 0.9376363351740774 0.0
O O 0.21529335392582863 0.9178782344195446 1.2262066186848986 0.0
O O 0.15324889877191533 0.9629958784717844 1.269041851456246 0.0
Zn Zn 0.2117130865429474 0.9624357532831491 0.8211116907429047 0.0
C C -0.2388356670448998 0.8881986265531654 -0.0784423182479465 0.0
H H -0.2377156670448998 0.9387686265531653 -0.06351231824794651 0.0
C C -0.24536991904260758 0.8668331228506424 -0.018113350106916126 0.0
H H -0.24664991904260758 0.8855031228506426 0.05042664989308386 0.0
C C -0.2505366529003753 0.7862375828805149 -0.015418313480836427 0.0
C C -0.24245801354132476 0.749021553716867 -0.15181647157140882 0.0
H H -0.24502801354132472 0.698591553716867 -0.16857647157140881 0.0
C C -0.24537895552842576 0.797182858653052 -0.22036886268930106 0.0
H H -0.2461589555284257 0.780062858653052 -0.290138862689301 0.0
C C -0.3572762952245156 0.9329117225197243 -0.4985076971507767 0.0
H H -0.3308562952245156 0.9002817225197245 -0.5326776971507767 0.0
C C -0.41790575282237624 0.9510958011690208 -0.5371726557484474 0.0
H H -0.4367857528223762 0.9241658011690207 -0.5977326557484474 0.0
C C -0.4701293828918869 0.9831803662523506 -0.4645781481895002 0.0
C C -0.43008352340638445 1.014886836231859 -0.4033448845338593 0.0
H H -0.45585352340638435 1.0470568362318589 -0.3674048845338594 0.0
C C -0.3494558330972303 1.0158691303560574 -0.35260533418861023 0.0
H H -0.32923583309723026 1.0422391303560574 -0.2921653341886102 0.0
C C -0.17742415659718114 0.9211393139047519 -0.5005527221692452 0.0
C C -0.15639018059701096 0.8748902235179733 -0.5426796259058304 0.0
C C -0.0988048879798707 0.8248523171285438 -0.5239587769759267 0.0
H H -0.09918488797987068 0.8109323171285439 -0.45292877697592665 0.0
C C -0.03847550589797282 0.7692249680320686 -0.592435809376462 0.0
H H -0.012855505897972826 0.7289049680320685 -0.561595809376462 0.0
C C -0.03701403212203964 0.7910211906370765 -0.6925678109611382 0.0
C C -0.10456499861618167 0.8510938637890395 -0.73081951772031 0.0
H H -0.10174499861618169 0.8661638637890394 -0.8005895177203101 0.0
C C -0.12518250216111923 0.8714363335059341 -0.6565373256939355 0.0
C C -0.15576285124473782 0.9369207634225534 -0.7203207819985924 0.0
C C 0.0034104797253438827 0.767225283490645 -0.7532067412709481 0.0
C C 0.047216869986226026 0.6794794669220766 -0.6599901768691626 0.0
F F 0.10739907275375689 0.6983054566439574 -0.5809759235611628 0.0
F F 0.01625643638626676 0.6129495276343443 -0.629918569129358 0.0
F F 0.08216095295774196 0.6598349402744222 -0.7373056779254263 0.0
N N -0.20708925562586125 0.8572287965384068 -0.173899427784475 0.0
N N -0.31254127211234745 0.9818548265223724 -0.41235034780467 0.0
O O -0.18657774967233876 1.0039989304380041 -0.4874803397221821 0.0
O O -0.2072527439253839 0.8933949892100363 -0.4387009753149146 0.0
O O -0.2172328327044868 0.9363062869736316 -0.7194587293807971 0.0
O O -0.1412932008451922 0.9807496022791584 -0.7518244628914159 0.0
Zn Zn -0.21864198075133526 0.9461812032236069 -0.3204888948242065 0.0
C C 0.7318713246643729 1.3873494843924152 0.5817873178271613 0.0
H H 0.7307513246643728 1.4379194843924152 0.5668573178271613 0.0
C C 0.7444989450786005 1.3356464541011472 0.5367934614191655 0.0
H H 0.7457789450786005 1.3543164541011472 0.46825346141916546 0.0
C C 0.7423646746950898 1.2661690834850368 0.5382486451917342 0.0
C C 0.7510569554731515 1.2550409436018763 0.6353674252107415 0.0
H H 0.7536269554731514 1.2046109436018764 0.6521274252107414 0.0
C C 0.7425797481311548 1.3001470001551096 0.7440058059211337 0.0
H H 0.7433597481311548 1.2830270001551096 0.8137758059211337 0.0
C C 0.8618713571664148 1.4311653024924496 0.9717399203723829 0.0
H H 0.8354513571664147 1.3985353024924496 1.005909920372383 0.0
C C 0.9246764903328412 1.4563815413694463 1.0299417138411857 0.0
H H 0.9435564903328412 1.4294515413694466 1.0905017138411857 0.0
C C 0.9699410110570682 1.4909460491836248 0.9809530818288845 0.0
C C 0.9305233954506993 1.5408144048986676 0.9061708184851405 0.0
H H 0.9562933954506995 1.5729844048986676 0.8702308184851404 0.0
C C 0.8477808152222627 1.5132405733902357 0.8493987402014989 0.0
H H 0.8275608152222625 1.5396105733902357 0.7889587402014988 0.0
C C 0.6683735595797108 1.3884407807099663 0.9995611534472207 0.0
C C 0.6195672978882284 1.3651714538351778 1.0443943211972722 0.0
C C 0.57195044600253 1.3041850345245343 0.9783725908961148 0.0
H H 0.5723304460025299 1.2902650345245343 0.9073425908961148 0.0
C C 0.5296858408344115 1.2818783790325339 1.0638379293273343 0.0
H H 0.5040658408344116 1.241558379032534 1.0329979293273346 0.0
C C 0.5301271875726856 1.2840964098756373 1.1489795944537728 0.0
C C 0.5926878193655251 1.3190344823717994 1.2133873197977851 0.0
H H 0.5898678193655251 1.3341044823717993 1.2831573197977855 0.0
C C 0.6042915500069241 1.3692405580734888 1.1800951961457737 0.0
C C 0.6793394919328972 1.4423306087410694 1.2148182495827118 0.0
C C 0.4987636049458192 1.1981064310961358 1.2757420026134272 0.0
C C 0.44383082264228413 1.1923750608319836 1.1855038090751386 0.0
F F 0.40197129201402576 1.2080272005396022 1.1098074668688938 0.0
F F 0.4793392123564163 1.1180095844191513 1.144664718813415 0.0
F F 0.38635344548829276 1.1568543598945318 1.2490693655800844 0.0
N N 0.73105770127479 1.3703788259748153 0.6945803545027641 0.0
N N 0.8115806094439603 1.4705950362731004 0.8961819416255529 0.0
O O 0.6726496396138453 1.4590412087077118 0.9922720366636782 0.0
O O 0.7001870566203339 1.3454889580234362 0.9172913221552802 0.0
O O 0.7139262877489693 1.4420386628938482 1.2339683437969673 0.0
O O 0.6506458023778635 1.4966355526552932 1.2647080000486204 0.0
Zn Zn 0.732915067442421 1.441247702363518 0.8312032131437195 0.0
C C 0.2457098263454596 1.392762268237425 -0.12109478469677558 0.0
H H 0.2468298263454596 1.4433322682374248 -0.10616478469677557 0.0
C C 0.25702431608295456 1.342592673046138 -0.04945257897880687 0.0
H H 0.2557443160829546 1.361262673046138 0.01908742102119311 0.0
C C 0.26820396910499184 1.2845445528030273 -0.029732343359442456 0.0
C C 0.23668031048713872 1.2589125501985303 -0.16492602086583172 0.0
H H 0.23411031048713862 1.2084825501985303 -0.1816860208658317 0.0
C C 0.26385131887333874 1.318535775038319 -0.25523817862311315 0.0
H H 0.2630713188733388 1.301415775038319 -0.3250081786231131 0.0
C C 0.13779626241066145 1.4405883154336925 -0.500501964872462 0.0
H H 0.16421626241066148 1.4079583154336923 -0.534671964872462 0.0
C C 0.08277737335277101 1.4507468416165694 -0.5104038683503245 0.0
H H 0.06389737335277099 1.4238168416165695 -0.5709638683503244 0.0
C C 0.050148901238326764 1.5000637786067883 -0.4637964071160016 0.0
C C 0.062449442852733406 1.5525930461884552 -0.40357106950099914 0.0
H H 0.03667944285273338 1.5847630461884552 -0.3676310695009992 0.0
C C 0.1322333688616667 1.5138707362674584 -0.33981196519600837 0.0
H H 0.15245336886166674 1.5402407362674584 -0.2793719651960083 0.0
C C 0.329999138096044 1.4153691278688598 -0.4749425101440819 0.0
C C 0.3662045887761767 1.3490531585239558 -0.5673310000473185 0.0
C C 0.4181200935406343 1.3110152140862297 -0.5278648636163001 0.0
H H 0.4177400935406343 1.29709521408623 -0.4568348636163001 0.0
C C 0.46778187345525774 1.2627960967217837 -0.5543892552139508 0.0
H H 0.4934018734552578 1.222476096721784 -0.5235492552139507 0.0
C C 0.4656924817710116 1.265172439895418 -0.6601789338973552 0.0
C C 0.41412272155004143 1.358775729762187 -0.7329222121722062 0.0
H H 0.41694272155004125 1.3738457297621869 -0.8026922121722063 0.0
C C 0.36061992390271996 1.3950106713545014 -0.6576239830572048 0.0
C C 0.32338984845496316 1.439410963066761 -0.7169221204727014 0.0
C C 0.5148320792459301 1.224756098621267 -0.7529282897746755 0.0
C C 0.5642696730111461 1.158010083040868 -0.687742278982056 0.0
F F 0.5910214233484926 1.2249974086623447 -0.5981090426785868 0.0
F F 0.5544968928845461 1.1322812060741214 -0.5937997006994259 0.0
F F 0.5965295979172486 1.157873540452435 -0.7622746251391231 0.0
N N 0.2537415710051403 1.3825462917672298 -0.22193048410169972 0.0
N N 0.1766638341516017 1.469936979256639 -0.38913691849692444 0.0
O O 0.32083337809449775 1.4783607822984288 -0.5158266308942799 0.0
O O 0.29411300417522906 1.3926407820904607 -0.4310310597008553 0.0
O O 0.28196022556513717 1.4158677446778964 -0.72598250687094 0.0
O O 0.37867722930206527 1.4862957656626836 -0.7574423148077062 0.0
Zn Zn 0.26859238033987554 1.4582906291890516 -0.34185832662389604 0.0
C C -0.2554315214944936 -0.9050527931571823 -0.6350292080306985 0.0
H H -0.25431152149449354 -0.9556227931571823 -0.6200992080306985 0.0
C C -0.23319821623236256 -0.8381265224190808 -0.5159493454681031 0.0
H H -0.2344782162323626 -0.8567965224190809 -0.4474093454681031 0.0
C C -0.23967134179259944 -0.7626929274527612 -0.5273417371726984 0.0
C C -0.2391287149088422 -0.746792677373939 -0.627813568713734 0.0
H H -0.2416987149088422 -0.696362677373939 -0.644573568713734 0.0
C C -0.2446625843442786 -0.806483376567468 -0.7158113365871709 0.0
H H -0.24544258434427857 -0.789363376567468 -0.7855813365871709 0.0
C C -0.3658655415061432 -0.9254369340902554 -0.9649784639145854 0.0
H H -0.3394455415061432 -0.8928069340902556 -0.9991484639145853 0.0
C C -0.4096347514890536 -0.9421115827101811 -1.035346209736936 0.0
H H -0.42851475148905355 -0.9151815827101811 -1.0959062097369359 0.0
C C -0.4554075956374721 -1.0013224037065884 -0.9849315036948697 0.0
C C -0.42837554548644213 -1.014112853068102 -0.8885546632544001 0.0
H H -0.454145545486442 -1.0462828530681016 -0.8526146632543999 0.0
C C -0.3708493066238715 -1.0280551668763112 -0.8517478957445093 0.0
H H -0.3506293066238715 -1.0544251668763114 -0.7913078957445092 0.0
C C -0.1673740063701563 -0.8911888228586476 -1.0005207605957254 0.0
C C -0.1204029548480693 -0.8503832026201154 -1.0333163007891673 0.0
C C -0.08351938201937585 -0.8041298462516265 -1.0068079939846568 0.0
H H -0.08389938201937584 -0.7902098462516265 -0.9357779939846568 0.0
C C -0.07809428530211525 -0.7530844508441397 -1.0902658785490766 0.0
H H -0.05247428530211525 -0.7127644508441396 -1.0594258785490767 0.0
C C -0.041498009678078304 -0.7568458680405149 -1.1737031863248912 0.0
C C -0.09136940295437322 -0.8373658936770699 -1.232649570988898 0.0
H H -0.08854940295437325 -0.8524358936770698 -1.3024195709888984 0.0
C C -0.13076078797063492 -0.8711663214018127 -1.1759577481208265 0.0
C C -0.1707602112866056 -0.9487405452340711 -1.215419896416865 0.0
C C 0.0175852252760657 -0.7196254333707542 -1.229220561260199 0.0
C C 0.027246694643633784 -0.6796358533390079 -1.2233033319900664 0.0
F F 0.09409402653829058 -0.711436017132546 -1.0876004989220438 0.0
F F 0.011481651584291786 -0.6207315502920469 -1.17460671808639 0.0
F F 0.10781470908789043 -0.6693260685972872 -1.2432479230908489 0.0
N N -0.22372194152582298 -0.8879622188385026 -0.7018366539562917 0.0
N N -0.3232912050575121 -0.9723474257718624 -0.8534429341772554 0.0
O O -0.17888782332913908 -0.964216879269058 -1.0219287950573253 0.0
O O -0.18080713842721527 -0.8767180746326342 -0.9148971637413138 0.0
O O -0.1988230002156055 -0.9440034345534536 -1.2127214745361998 0.0
O O -0.12519400236631822 -0.9959824369201113 -1.2665771001194408 0.0
Zn Zn -0.2422186503208957 -0.9482399766203542 -0.8321518615607217 0.0
C C 0.236784116666671 -0.9041207758047153 0.09469380825459874 0.0
H H 0.23566411666667103 -0.9546907758047152 0.07976380825459874 0.0
C C 0.25746921152765906 -0.8491144902141052 0.025448083582662092 0.0
H H 0.25874921152765906 -0.8677844902141054 -0.0430919164173379 0.0
C C 0.25028305781654353 -0.7797310872730093 0.04806404992178143 0.0
C C 0.23015544907958144 -0.7495746516299203 0.13513444199900587 0.0
H H 0.23272544907958137 -0.6991446516299202 0.15189444199900587 0.0
C C 0.24074996453472391 -0.8025232312687723 0.23070906059464524 0.0
H H 0.2415299645347239 -0.7854032312687723 0.3004790605946452 0.0
C C 0.36095079147734127 -0.9617871171143959 0.5005110240423878 0.0
H H 0.3345307914773412 -0.929157117114396 0.5346810240423878 0.0
C C 0.42476108156364767 -0.9331377943933108 0.5113461401714868 0.0
H H 0.4436410815636476 -0.9062077943933107 0.5719061401714868 0.0
C C 0.4498831253238098 -0.9966948318485914 0.5003046777683635 0.0
C C 0.42389152809823105 -1.030696047169902 0.3768649215276751 0.0
H H 0.44966152809823096 -1.0628660471699019 0.3409249215276751 0.0
C C 0.3616329052756036 -1.0199404806446382 0.34859956141515813 0.0
H H 0.34141290527560353 -1.0463104806446382 0.288159561415158 0.0
C C 0.1760559048128745 -0.9094582751360109 0.5109008189224261 0.0
C C 0.12926075188493666 -0.8715032973661453 0.5407426005148667 0.0
C C 0.08760771842873588 -0.8086083909841033 0.5187873536554162 0.0
H H 0.08798771842873584 -0.7946883909841034 0.4477573536554161 0.0
C C 0.04155781743387896 -0.7689634685803852 0.5749710581262436 0.0
H H 0.015937817433878954 -0.7286434685803851 0.5441310581262436 0.0
C C 0.022888374318768667 -0.7637452379151974 0.662295961513041 0.0
C C 0.064393555684772 -0.8360335311239908 0.708386266968444 0.0
H H 0.061573555684772005 -0.8511035311239907 0.7781562669684441 0.0
C C 0.11568725566542797 -0.8722530036586039 0.6417871021242805 0.0
C C 0.16767996238106042 -0.9341001793738409 0.6928846519700724 0.0
C C -0.004012898892016994 -0.7162080092010795 0.737117062094905 0.0
C C -0.0645067313042924 -0.671941374615154 0.6838859064203286 0.0
F F -0.10469865024137087 -0.7068710716100202 0.6020309563881199 0.0
F F -0.03333763797838743 -0.6150685835840101 0.6410775673790581 0.0
F F -0.09466967999821 -0.6420527509963156 0.7567898891960578 0.0
N N 0.23202145963110044 -0.8794241824117685 0.2111145614481099 0.0
N N 0.3014975525257936 -0.9684174577980813 0.3948614485788404 0.0
O O 0.16083972216450476 -0.9842821724688264 0.4643905449431035 0.0
O O 0.1871680757875711 -0.8780981584873592 0.42726862611546895 0.0
O O 0.2187429030555838 -0.9407136915468892 0.6877826176967782 0.0
O O 0.1534206253024274 -1.000974625682593 0.7572095519090724 0.0
Zn Zn 0.2318839769709402 -0.9680492110663801 0.3238033518144117 0.0
C C 0.2720259020597403 -0.3998204210122249 -0.6240177354205257 0.0
H H 0.27314590205974026 -0.4503904210122248 -0.6090877354205257 0.0
C C 0.23017388486058127 -0.34452800296517 -0.5153770280580404 0.0
H H 0.22889388486058135 -0.36319800296517 -0.44683702805804043 0.0
C C 0.25699195271826614 -0.27525409287655417 -0.5430762487203005 0.0
C C 0.26213285663766644 -0.25361850600968455 -0.640468342294149 0.0
H H 0.25956285663766643 -0.20318850600968452 -0.657228342294149 0.0
C C 0.2690226569369815 -0.31779659712714114 -0.7068686584066773 0.0
H H 0.26824265693698157 -0.3006765971271411 -0.7766386584066773 0.0
C C 0.15295264440126838 -0.43660020341301736 -0.9490728254322794 0.0
H H 0.17937264440126838 -0.40397020341301737 -0.9832428254322795 0.0
C C 0.08390535555191374 -0.43561198177718913 -1.0095192324632258 0.0
H H 0.06502535555191374 -0.4086819817771891 -1.0700792324632258 0.0
C C 0.03762236164462661 -0.5065048396799141 -0.9887589915446201 0.0
C C 0.05229875124301358 -0.5154586798648851 -0.8985251555413786 0.0
H H 0.026528751243013578 -0.547628679864885 -0.8625851555413785 0.0
C C 0.13290992402666787 -0.5375636599173373 -0.8443360175348503 0.0
H H 0.15312992402666792 -0.5639336599173373 -0.7838960175348502 0.0
C C 0.3509630191551065 -0.4058871307642174 -1.0036020136291701 0.0
C C 0.37258414483855284 -0.3555378628178714 -1.0768914611228129 0.0
C C 0.4114641158618783 -0.2831415662388365 -1.0389438558240105 0.0
H H 0.4110841158618783 -0.2692215662388366 -0.9679138558240105 0.0
C C 0.45083956696806965 -0.24697916371350828 -1.0735011688894696 0.0
H H 0.4764595669680696 -0.20665916371350826 -1.0426611688894696 0.0
C C 0.44464935829220786 -0.28654447876129324 -1.17496423846899 0.0
C C 0.4285665800498858 -0.33600184157778185 -1.223041449477036 0.0
H H 0.4313865800498858 -0.3510718415777818 -1.2928114494770364 0.0
C C 0.38029199314312734 -0.380820178869701 -1.148613128689309 0.0
C C 0.3162454466013729 -0.42655785573961524 -1.2232979876636836 0.0
C C 0.502226207516321 -0.2458223362108112 -1.2415610584070103 0.0
C C 0.5590192929084059 -0.17825917972699654 -1.171525430676731 0.0
F F 0.6142305265938254 -0.2229236360649787 -1.0886041935010877 0.0
F F 0.5252904464847212 -0.11156589884801137 -1.1483853042576049 0.0
F F 0.6167073533805344 -0.16584617181088715 -1.2354767591051203 0.0
N N 0.28362436487602133 -0.37937170634430717 -0.6977172195499178 0.0
N N 0.1837065909097629 -0.4521078626152165 -0.897444359291518 0.0
O O 0.3322645647875689 -0.46355960021649406 -0.9844839219836327 0.0
O O 0.3000391587800748 -0.35305374391519934 -0.9338946346226638 0.0
O O 0.25723833994071005 -0.41899771811835557 -1.1891526329161741 0.0
O O 0.3645490708513739 -0.5058602045815304 -1.2767370721541758 0.0
Zn Zn 0.2721220649225173 -0.4453602432284947 -0.845962894406896 0.0
C C 0.7396956695131747 -0.39606791015863335 0.1373885803316839 0.0
H H 0.7385756695131748 -0.4466379101586333 0.1224585803316839 0.0
C C 0.7486888946526357 -0.33351362296097226 0.03640828969191595 0.0
H H 0.7499688946526356 -0.35218362296097233 -0.03213171030808404 0.0
C C 0.7397662536188464 -0.26574828093926445 0.06464787532861441 0.0
C C 0.7374255858963662 -0.24343095302569512 0.12940596241145408 0.0
H H 0.7399955858963662 -0.19300095302569512 0.14616596241145405 0.0
C C 0.7539049460833 -0.3160492236867054 0.2371327160278268 0.0
H H 0.7546849460833 -0.2989292236867054 0.30690271602782676 0.0
C C 0.8521810107707931 -0.4299897917129103 0.4740755128039675 0.0
H H 0.8257610107707931 -0.3973597917129103 0.5082455128039675 0.0
C C 0.9226235579089258 -0.4531792016272797 0.5221118829685406 0.0
H H 0.9415035579089258 -0.42624920162727975 0.5826718829685406 0.0
C C 0.9696978277449008 -0.4988839525400744 0.47512299232854166 0.0
C C 0.935930417525178 -0.5327841028291029 0.38796007036776653 0.0
H H 0.9617004175251781 -0.5649541028291027 0.35202007036776656 0.0
C C 0.8521383352793054 -0.5363074726314887 0.35370213842419884 0.0
H H 0.8319183352793054 -0.5626774726314886 0.29326213842419874 0.0
C C 0.6838173336250831 -0.41891839272799236 0.5098455123885824 0.0
C C 0.6057338986924886 -0.3550859639439957 0.5266983118747365 0.0
C C 0.5749186743216665 -0.2954721284586525 0.5052852821752793 0.0
H H 0.5752986743216665 -0.28155212845865263 0.43425528217527926 0.0
C C 0.5413102315141083 -0.2730522358604902 0.5779789657779095 0.0
H H 0.5156902315141083 -0.2327322358604902 0.5471389657779095 0.0
C C 0.5230264927263226 -0.2744545017888463 0.6513067557636326 0.0
C C 0.5676207518855502 -0.348426960864933 0.705621206073897 0.0
H H 0.5648007518855503 -0.36349696086493294 0.7753912060738972 0.0
C C 0.6047168392008518 -0.3530421896184636 0.6569117702901536 0.0
C C 0.6789826261346145 -0.44180472482549554 0.7124921632496549 0.0
C C 0.4968106717654009 -0.22964640048745402 0.7541977901440524 0.0
C C 0.44307093015232424 -0.1778453611296145 0.6879485850638203 0.0
F F 0.38716801145148827 -0.22817435045208362 0.6031313043645531 0.0
F F 0.4670540694670458 -0.11683041256679448 0.6391671659444924 0.0
F F 0.3972831742891639 -0.1499709001273739 0.7698342715197314 0.0
N N 0.715537808339194 -0.38205838029546585 0.22217803385917487 0.0
N N 0.8302480145432058 -0.4570385840587305 0.39474593192778407 0.0
O O 0.6890928939984399 -0.4632610812648785 0.5437876378107847 0.0
O O 0.681105489165596 -0.3699751531815479 0.41205066501369664 0.0
O O 0.7290302939673398 -0.4440327821668939 0.69382101901923 0.0
O O 0.6479308151854355 -0.4671917886694531 0.7856894712432659 0.0
Zn Zn 0.7231298510612437 -0.4471713927619197 0.3479720920793943 0.0
