_cell_length_a 19.5206
_cell_length_b 17.9856
_cell_length_c 12.6054
_cell_angle_alpha 90.0
_cell_angle_beta 99.0355
_cell_angle_gamma 90.0
_symmetry_space_group_name_H-M         'P 1'
_symmetry_Int_Tables_number            1
loop_
_symmetry_equiv_pos_as_xyz
   'x, y, z'
                         
loop_
_atom_site_label
_atom_site_type_symbol
_atom_site_fract_x 
_atom_site_fract_y
_atom_site_fract_z
_atom_site_charge
C C 0.22569511775729306 0.8887606978006656 0.6000110415405444 0.0
H H 0.22457511775729302 0.9393306978006655 0.5850810415405444 0.0
C C 0.23079680105092729 0.8574139783518435 0.5259576848517988 0.0
H H 0.2320768010509273 0.8760839783518437 0.45741768485179884 0.0
C C 0.259123873692832 0.7717582380998813 0.5303830096020519 0.0
C C 0.26083409918904127 0.7247109087835063 0.62806466394059 0.0
H H 0.2634040991890413 0.6742809087835062 0.64482466394059 0.0
C C 0.23498191894902692 0.8152477088087545 0.7245204390357123 0.0
H H 0.2357619189490269 0.7981277088087545 0.7942904390357123 0.0
C C 0.34784345562995894 0.9594694513483669 0.9945288851681531 0.0
H H 0.32142345562995894 0.9268394513483671 1.028698885168153 0.0
C C 0.4243481553247272 0.9580346060535077 1.022216321447041 0.0
H H 0.44322815532472715 0.9311046060535075 1.082776321447041 0.0
C C 0.46009822080198065 0.9776540116409987 0.9940008117337933 0.0
C C 0.4528209930893386 1.0212037703005756 0.9243394038817061 0.0
H H 0.4785909930893385 1.0533737703005752 0.888399403881706 0.0
C C 0.38800881505463813 1.027109051428252 0.8562616594535644 0.0
H H 0.3677888150546381 1.053479051428252 0.7958216594535643 0.0
C C 0.1587490465857146 0.9095619955923369 0.9849298122351903 0.0
C C 0.14299265319101456 0.8328237543115272 1.0305940314060558 0.0
C C 0.06881199498845272 0.7927984597414813 1.0188325032642451 0.0
H H 0.0691919949884527 0.7788784597414813 0.9478025032642452 0.0
C C 0.047144489725282485 0.7667977157887854 1.07558316181033 0.0
H H 0.02152448972528248 0.7264777157887854 1.04474316181033 0.0
C C 0.04201007921951665 0.7709830402538522 1.1720824777292946 0.0
C C 0.08393227942068439 0.8190057398649322 1.223063073753449 0.0
H H 0.0811122794206844 0.8340757398649321 1.2928330737534492 0.0
C C 0.12597553247264162 0.8705130821474523 1.1545524638434368 0.0
C C 0.1679091325437402 0.9330751026397165 1.2240951359432917 0.0
C C -0.00286454226086814 0.7380225138920397 1.23878505198198 0.0
C C -0.0519439997600938 0.6834794694767152 1.1709679935102548 0.0
F F -0.11134616298361263 0.7257777961353805 1.1079384875583533 0.0
F F -0.04752356833196132 0.6180577117957309 1.1452132035684632 0.0
F F -0.11146627156990878 0.6334641925979781 1.2328629711992884 0.0
N N 0.22572897949667214 0.885805566901371 0.6972939747626256 0.0
N N 0.33356363344119183 0.9752195219945414 0.9075715437410221 0.0
O O 0.16693832082380217 0.9559504731707088 0.9755842529665829 0.0
O O 0.19819312342562898 0.851909698296011 0.9214822279546797 0.0
O O 0.23446993076724387 0.9194566698500285 1.1992279728560626 0.0
O O 0.14216261914917228 0.9753774322271447 1.286259704677005 0.0
Zn Zn 0.21582262761786963 0.9533947492626802 0.83542634071628 0.0
C C -0.22980097938038524 0.9186262284996223 -0.08990384544183913 0.0
H H -0.22868097938038523 0.9691962284996222 -0.07497384544183913 0.0
C C -0.24882013859978913 0.8636542849504525 -0.04553188647001013 0.0
H H -0.25010013859978913 0.8823242849504526 0.023008113529989854 0.0
C C -0.24660620498827002 0.7619544897445609 -0.05892652036405864 0.0
C C -0.2462631108859674 0.7479562603148004 -0.13659869398237068 0.0
H H -0.24883311088596735 0.6975262603148005 -0.15335869398237068 0.0
C C -0.24844000212011066 0.8071497756040735 -0.22996791990355092 0.0
H H -0.2492200021201106 0.7900297756040735 -0.29973791990355086 0.0
C C -0.36136737969092964 0.9560276911854095 -0.4806383309299882 0.0
H H -0.33494737969092964 0.9233976911854097 -0.5148083309299882 0.0
C C -0.4318143507594772 0.9809625754258396 -0.5329842774611538 0.0
H H -0.4506943507594771 0.9540325754258396 -0.5935442774611538 0.0
C C -0.45152972190917934 0.9929061334265946 -0.47187406851016744 0.0
C C -0.4408539273862167 1.040209180515228 -0.38164616611731517 0.0
H H -0.4666239273862166 1.0723791805152278 -0.34570616611731525 0.0
C C -0.37722028405624614 1.0118606913871213 -0.36075961772297094 0.0
H H -0.35700028405624606 1.0382306913871213 -0.3003196177229709 0.0
C C -0.16125167243167765 0.9033083137675776 -0.4922109379084903 0.0
C C -0.11087232050335445 0.8479608769291095 -0.5528416726035007 0.0
C C -0.08013675280364142 0.7783109599747884 -0.5049280847404131 0.0
H H -0.0805167528036414 0.7643909599747885 -0.43389808474041297 0.0
C C -0.06369642152371571 0.7596745210732848 -0.6023752227431007 0.0
H H -0.038076421523715716 0.7193545210732848 -0.5715352227431008 0.0
C C -0.05173205090935964 0.7797093311861386 -0.685503523762318 0.0
C C -0.0645529288788685 0.8661602377069232 -0.7259593049079403 0.0
H H -0.06173292887886852 0.8812302377069231 -0.7957293049079405 0.0
C C -0.10500060090935767 0.8516944174278297 -0.6313184172813638 0.0
C C -0.18224617085665398 0.9314186351538828 -0.7280865973378395 0.0
C C -0.007677224278171152 0.7266940600804951 -0.7524874759264013 0.0
C C 0.03248230591049247 0.683471267844143 -0.7152297898762836 0.0
F F 0.0888296553261312 0.7366661487948162 -0.6101208731947649 0.0
F F 0.03878728886464508 0.6190808969761665 -0.6196207194377402 0.0
F F 0.09530303401929904 0.651965117543889 -0.7704163683033884 0.0
N N -0.26019442739145904 0.8774595929905065 -0.2005125751112349 0.0
N N -0.3171846672748727 0.9865358394298774 -0.3814722536143006 0.0
O O -0.17763927086677953 1.0037305783874217 -0.4804505302013335 0.0
O O -0.19777763974192328 0.8896092847031182 -0.4227563559016902 0.0
O O -0.2378238994226403 0.9398227824123863 -0.735122190577164 0.0
O O -0.1550928333840396 1.010571749075032 -0.776583834135414 0.0
Zn Zn -0.22614341017678471 0.9505957087714171 -0.32996318974295397 0.0
C C 0.7351967530026838 1.365031703371218 0.6091903753667199 0.0
H H 0.7340767530026838 1.415601703371218 0.5942603753667199 0.0
C C 0.7357172765697261 1.3527341068132996 0.5112336965883383 0.0
H H 0.7369972765697261 1.3714041068132996 0.44269369658833824 0.0
C C 0.7404882036847475 1.275632706601692 0.5249753249142598 0.0
C C 0.7300664760913951 1.2521156047235733 0.658637027420712 0.0
H H 0.7326364760913949 1.2016856047235733 0.675397027420712 0.0
C C 0.7359488208582066 1.3035038518588922 0.7261379510837415 0.0
H H 0.7367288208582066 1.286383851858892 0.7959079510837415 0.0
C C 0.8598293134457796 1.4355128677195341 1.005343771773137 0.0
H H 0.8334093134457795 1.402882867719534 1.039513771773137 0.0
C C 0.9163698800676601 1.4648384307388433 1.0327325441743431 0.0
H H 0.9352498800676603 1.4379084307388434 1.093292544174343 0.0
C C 0.9728841015285337 1.4969079138023003 0.9882440966777831 0.0
C C 0.9366756934998374 1.5352389954111507 0.9161779584555397 0.0
H H 0.9624456934998376 1.5674089954111508 0.8802379584555396 0.0
C C 0.8667108485852358 1.5436358402914987 0.8240949868862154 0.0
H H 0.8464908485852357 1.5700058402914987 0.7636549868862152 0.0
C C 0.6550464464128146 1.374047235025296 0.9896369515985777 0.0
C C 0.6344965020042475 1.3517523301321235 1.0667352963815506 0.0
C C 0.5983512465798795 1.2902082594082467 1.0222719701812608 0.0
H H 0.5987312465798793 1.276288259408247 0.9512419701812607 0.0
C C 0.5230726382603663 1.2633882354932526 1.0398423220166104 0.0
H H 0.49745263826036634 1.2230682354932527 1.0090023220166107 0.0
C C 0.551958392334624 1.2923115056181915 1.1855774763808025 0.0
C C 0.5666804562960456 1.3317098952194686 1.2117408325035834 0.0
H H 0.5638604562960456 1.3467798952194685 1.2815108325035836 0.0
C C 0.609967871209792 1.384706066995994 1.1740654700149897 0.0
C C 0.653721831822776 1.4505690478873257 1.2335578127753488 0.0
C C 0.5029333940917352 1.2144369136934026 1.2549028618209472 0.0
C C 0.430729010473871 1.1874145796937345 1.1428088999068076 0.0
F F 0.417546059732965 1.2098686994155932 1.1343810794329727 0.0
F F 0.4772194013087836 1.1102631375111551 1.1581976465404655 0.0
F F 0.4010741028466999 1.1671255404827083 1.2241062795489945 0.0
N N 0.729197070504825 1.3794374771873803 0.7058023478228431 0.0
N N 0.8112451542913264 1.4657131109190358 0.8599986099840125 0.0
O O 0.6550343003958196 1.490674055955193 0.9916785199542614 0.0
O O 0.6805878234853959 1.3646353693788462 0.9209737775720789 0.0
O O 0.7354188490867837 1.4198962844571652 1.2269713640833273 0.0
O O 0.6384775488904648 1.508936881641204 1.2677074775492978 0.0
Zn Zn 0.7214954937321748 1.437243240792821 0.8248524659321075 0.0
C C 0.25906609033095074 1.3926600874468804 -0.11426916289122006 0.0
H H 0.26018609033095075 1.4432300874468804 -0.09933916289122006 0.0
C C 0.25159444880879067 1.351184405043451 -0.010439624548255037 0.0
H H 0.2503144488087907 1.369854405043451 0.05810037545174494 0.0
C C 0.26202807482287727 1.2622573193735391 -0.036894382870010206 0.0
C C 0.2597429803002395 1.2380087715547174 -0.1462917270225275 0.0
H H 0.2571729803002395 1.1875787715547175 -0.16305172702252746 0.0
C C 0.2610444101032201 1.298181367810487 -0.20925738066399024 0.0
H H 0.26026441010322016 1.2810613678104867 -0.2790273806639902 0.0
C C 0.15618329442182544 1.431313443226005 -0.46244290414354705 0.0
H H 0.18260329442182544 1.3986834432260051 -0.4966129041435471 0.0
C C 0.07740174556578401 1.418148885997134 -0.5505163978462473 0.0
H H 0.058521745565783996 1.3912188859971344 -0.6110763978462472 0.0
C C 0.03805352245500017 1.4941024473443167 -0.46321068032358126 0.0
C C 0.06120756007914702 1.5189657581497904 -0.37043396598461253 0.0
H H 0.035437560079147 1.5511357581497904 -0.33449396598461256 0.0
C C 0.14583316852231085 1.5276959962296623 -0.34791925040088695 0.0
H H 0.16605316852231086 1.5540659962296621 -0.28747925040088684 0.0
C C 0.34000904143116645 1.4019236122919458 -0.48415027972939106 0.0
C C 0.37709544063298156 1.370990545239867 -0.5478479242184043 0.0
C C 0.4280973759282565 1.3105113413166745 -0.5024956279173779 0.0
H H 0.42771737592825654 1.2965913413166748 -0.43146562791737786 0.0
C C 0.48436353763713347 1.2379328069805844 -0.5435658258156654 0.0
H H 0.5099835376371334 1.1976128069805845 -0.5127258258156654 0.0
C C 0.4542046554614779 1.2631409760370635 -0.6791535573087966 0.0
C C 0.44331540440800976 1.3307474327859765 -0.7084266395716495 0.0
H H 0.44613540440800953 1.3458174327859764 -0.7781966395716496 0.0
C C 0.35611353352003405 1.369544070414855 -0.6745113200820786 0.0
C C 0.34738286931194856 1.430235242840454 -0.7060930251158676 0.0
C C 0.4966462818884587 1.2327245059229897 -0.762627669031925 0.0
C C 0.5746791283173102 1.165521423961959 -0.6532497548979803 0.0
F F 0.5879920768451685 1.2227509193626198 -0.5950725878448442 0.0
F F 0.5473332198120019 1.1300817747432088 -0.6164603234134336 0.0
F F 0.5932748864145704 1.1475204715971257 -0.7508126135650686 0.0
N N 0.26841956077885126 1.3610025686699527 -0.20132162938983802 0.0
N N 0.18366397826937395 1.4696119133655303 -0.3876926384274705 0.0
O O 0.324845461625448 1.459601856730662 -0.5060026914218833 0.0
O O 0.3201727110903023 1.3541629426521102 -0.4262186684861282 0.0
O O 0.26937079305047235 1.4346062834035958 -0.7320496089773784 0.0
O O 0.36583325084262197 1.4738394985587995 -0.7351216891672294 0.0
Zn Zn 0.26395700175377634 1.4500617225026908 -0.3332566418776052 0.0
C C -0.24336722557924448 -0.9001171883906605 -0.612118509202509 0.0
H H -0.24224722557924447 -0.9506871883906605 -0.597188509202509 0.0
C C -0.23387479764238403 -0.8510917104144291 -0.5444820897980143 0.0
H H -0.23515479764238403 -0.8697617104144292 -0.4759420897980143 0.0
C C -0.2367802472932361 -0.7630308082530056 -0.5609008657144063 0.0
C C -0.23738548292649175 -0.7536027260972598 -0.6578481432080799 0.0
H H -0.23995548292649177 -0.7031727260972598 -0.6746081432080799 0.0
C C -0.22199655250460615 -0.814923110643753 -0.7401579392217004 0.0
H H -0.22277655250460612 -0.797803110643753 -0.8099279392217004 0.0
C C -0.3600529632695623 -0.9338601332091954 -0.9881077942912024 0.0
H H -0.33363296326956227 -0.9012301332091955 -1.0222777942912025 0.0
C C -0.41401202236211715 -0.9262848486011677 -1.0063682039927948 0.0
H H -0.4328920223621171 -0.8993548486011677 -1.0669282039927948 0.0
C C -0.4555961018887383 -1.0130576093774206 -0.9780748848410363 0.0
C C -0.41986904574914985 -1.0441644207140155 -0.8766144159792136 0.0
H H -0.4456390457491497 -1.0763344207140153 -0.8406744159792136 0.0
C C -0.36581749024160237 -1.0231255442986487 -0.8684304430396513 0.0
H H -0.34559749024160236 -1.0494955442986487 -0.8079904430396513 0.0
C C -0.17148227549839806 -0.892574851482802 -1.0027682990285272 0.0
C C -0.1428027330655796 -0.8548366628553106 -1.0590631645586357 0.0
C C -0.09417222333164289 -0.776316007906198 -1.0279676587834785 0.0
H H -0.09455222333164287 -0.762396007906198 -0.9569376587834786 0.0
C C -0.03442909533296815 -0.7564104979133717 -1.0702527573257168 0.0
H H -0.00880909533296815 -0.7160904979133716 -1.039412757325717 0.0
C C -0.024471631579288625 -0.7901577436014838 -1.1692537554448774 0.0
C C -0.059413585270433 -0.8329637369457896 -1.2258416905412668 0.0
H H -0.05659358527043303 -0.8480337369457895 -1.2956116905412671 0.0
C C -0.10518638200850289 -0.8788035091564433 -1.137088082958656 0.0
C C -0.1606251326536189 -0.9450986997732197 -1.2095294629605269 0.0
C C 0.00965699559706415 -0.7248161367021286 -1.2536665502028383 0.0
C C 0.06409267825778794 -0.6721012203072899 -1.1895318586174817 0.0
F F 0.11985599986353064 -0.7408678143531398 -1.1136764112093624 0.0
F F 0.02899369859387604 -0.6186194593899085 -1.1405217314564484 0.0
F F 0.08091084456469792 -0.652663683835236 -1.256991258531822 0.0
N N -0.23429556774247645 -0.875192958889355 -0.6985707457492611 0.0
N N -0.3220730461741467 -0.9740481623276923 -0.8879969994152266 0.0
O O -0.15684277923316287 -0.9791424580194876 -0.9920678921841938 0.0
O O -0.19650150182924522 -0.8726315517226853 -0.9371069290650135 0.0
O O -0.22663628122694995 -0.9340772049750815 -1.2388554050127505 0.0
O O -0.13904035968084758 -0.9918223981627747 -1.2584815285425204 0.0
Zn Zn -0.23128743123018536 -0.9496704972687113 -0.8689079318508397 0.0
C C 0.22617689732489646 -0.8933201970384007 0.1097395633957428 0.0
H H 0.22505689732489645 -0.9438901970384007 0.0948095633957428 0.0
C C 0.2652594233965031 -0.8512925043140661 0.036469563469475955 0.0
H H 0.2665394233965031 -0.8699625043140662 -0.032070436530524035 0.0
C C 0.26261919317688753 -0.7826002853800914 0.050052209054288595 0.0
C C 0.2429221702504922 -0.7332394059686539 0.140114145679953 0.0
H H 0.2454921702504922 -0.6828094059686539 0.156874145679953 0.0
C C 0.24521882861624014 -0.8214392009750159 0.20363264259926045 0.0
H H 0.24599882861624006 -0.8043192009750159 0.2734026425992604 0.0
C C 0.35896771581499304 -0.9196980113895352 0.4634403631049388 0.0
H H 0.332547715814993 -0.8870680113895354 0.4976103631049389 0.0
C C 0.434819016272182 -0.9550704287363216 0.5034569081520662 0.0
H H 0.45369901627218195 -0.9281404287363216 0.5640169081520662 0.0
C C 0.46618889166191124 -1.010513584189571 0.49006191808332417 0.0
C C 0.4239218587587052 -1.0336552434513486 0.38043329382117086 0.0
H H 0.4496918587587051 -1.0658252434513484 0.34449329382117094 0.0
C C 0.3733988399512005 -1.0157398395845751 0.3548804029127634 0.0
H H 0.3531788399512005 -1.0421098395845751 0.29444040291276335 0.0
C C 0.17722846565571412 -0.917589469990108 0.5062086084497318 0.0
C C 0.13054758006174114 -0.8419746958033075 0.5667186136986125 0.0
C C 0.07052558297555077 -0.7945989395197287 0.5071262281611191 0.0
H H 0.07090558297555075 -0.7806789395197288 0.43609622816111904 0.0
C C 0.047819877991060585 -0.7562253973397117 0.5780137980740603 0.0
H H 0.02219987799106059 -0.7159053973397117 0.5471737980740602 0.0
C C 0.03503324709364963 -0.786195451687059 0.692347102947605 0.0
C C 0.08671222402266833 -0.8464063537677512 0.7202768231463074 0.0
H H 0.08389222402266835 -0.8614763537677511 0.7900468231463075 0.0
C C 0.13405111914142356 -0.8780699651936313 0.6779698904197489 0.0
C C 0.19118461166539372 -0.948288546722246 0.7041493066014007 0.0
C C -0.005400223474639298 -0.7298859239261436 0.7668308435235669 0.0
C C -0.0586052790979529 -0.6800827681919023 0.6876644572872505 0.0
F F -0.10706748568789962 -0.7210750239033267 0.5683339058231691 0.0
F F -0.02600803175622729 -0.6194217908081873 0.6542039024944787 0.0
F F -0.07569775600073056 -0.644900056031721 0.7564499380432868 0.0
N N 0.24975745951988892 -0.8840725545535775 0.20440016363896216 0.0
N N 0.331745165882715 -0.9761663330853058 0.3862463354771782 0.0
O O 0.16726888250441382 -0.9518042430025796 0.4955948311943974 0.0
O O 0.188773607578885 -0.8801378405538913 0.43210748557735135 0.0
O O 0.22215086109603546 -0.9445596561882843 0.6960671093592087 0.0
O O 0.15514427310955337 -1.0009312866331754 0.7437691699515419 0.0
Zn Zn 0.22540316975742858 -0.9572987127034778 0.30796897531943374 0.0
C C 0.2486185480771266 -0.3996477024145053 -0.6165589353817353 0.0
H H 0.2497385480771266 -0.45021770241450515 -0.6016289353817352 0.0
C C 0.2471988796197345 -0.3588452305017485 -0.5346503335665476 0.0
H H 0.24591887961973458 -0.3775152305017485 -0.4661103335665476 0.0
C C 0.25579123688608935 -0.2764667502391213 -0.5461506661932362 0.0
C C 0.2601716620452548 -0.25363710665143374 -0.6491603920274165 0.0
H H 0.25760166204525475 -0.2032071066514338 -0.6659203920274165 0.0
C C 0.26725555579614596 -0.325471153897346 -0.7228281622062147 0.0
H H 0.26647555579614596 -0.3083511538973459 -0.7925981622062147 0.0
C C 0.14425500757324747 -0.4379125797503342 -0.9843870744064386 0.0
H H 0.17067500757324747 -0.40528257975033427 -1.0185570744064385 0.0
C C 0.08838193624146413 -0.4490366505575721 -1.0449943951275031 0.0
H H 0.06950193624146414 -0.4221066505575721 -1.1055543951275029 0.0
C C 0.049461729104528694 -0.4867533427400123 -0.9711584318542116 0.0
C C 0.07869193397995522 -0.5337456526492258 -0.8723658622880563 0.0
H H 0.05292193397995522 -0.5659156526492256 -0.8364258622880563 0.0
C C 0.15274761167419929 -0.5159946075151696 -0.8581027718392562 0.0
H H 0.17296761167419936 -0.5423646075151696 -0.7976627718392562 0.0
C C 0.3177650460437614 -0.39812553002158213 -0.9759525398014585 0.0
C C 0.38387451268230266 -0.3564368394138644 -1.0847419926475779 0.0
C C 0.3987741930777651 -0.29734031062271665 -1.0115624694313754 0.0
H H 0.3983941930777651 -0.28342031062271666 -0.9405324694313755 0.0
C C 0.44759914515729227 -0.2478893496225418 -1.073121184735544 0.0
H H 0.47321914515729213 -0.20756934962254178 -1.0422811847355442 0.0
C C 0.47043059966842127 -0.2678137549584394 -1.1519531139657289 0.0
C C 0.43397898803435203 -0.3286224026497141 -1.2302541328170504 0.0
H H 0.4367989880343519 -0.34369240264971407 -1.3000241328170508 0.0
C C 0.37849461873357076 -0.3664994713873205 -1.1484938194403171 0.0
C C 0.3216242666465011 -0.4370564466012442 -1.2327475821265241 0.0
C C 0.49531468034316006 -0.21869249504780924 -1.2525078767402005 0.0
C C 0.5616074382563914 -0.18985119842197853 -1.1657735274038503 0.0
F F 0.597194599193006 -0.23609206557496085 -1.1110221123495938 0.0
F F 0.5293262805502551 -0.1546016044203971 -1.0986441741393929 0.0
F F 0.6156697669833479 -0.1697393475012097 -1.2349619366665876 0.0
N N 0.2806538207906315 -0.3637204766166742 -0.7284105906049695 0.0
N N 0.1719859829870529 -0.46307202323933483 -0.916856927896044 0.0
O O 0.3403964036084668 -0.45666312801649056 -0.968665984640138 0.0
O O 0.31801136916176825 -0.3710761749446956 -0.9333959113560919 0.0
O O 0.2538866938686372 -0.42640064091335594 -1.231948298913436 0.0
O O 0.34961410822041733 -0.48599820795737003 -1.2396113763885532 0.0
Zn Zn 0.2894734383948787 -0.44634686925319506 -0.8086070420586428 0.0
C C 0.7353723730517968 -0.3841672311838941 0.10462620818271536 0.0
H H 0.7342523730517968 -0.43473723118389407 0.08969620818271536 0.0
C C 0.7527893796881496 -0.34326849464889336 0.046942040959121634 0.0
H H 0.7540693796881495 -0.36193849464889344 -0.02159795904087836 0.0
C C 0.7310076029822852 -0.2593592379842312 0.06417940624462942 0.0
C C 0.7325601094098497 -0.2655807281916601 0.12221137287137826 0.0
H H 0.7351301094098496 -0.21515072819166012 0.13897137287137826 0.0
C C 0.7613246618773498 -0.2925620150587161 0.25525888164490107 0.0
H H 0.7621046618773498 -0.27544201505871607 0.32502888164490107 0.0
C C 0.8514247889449311 -0.42412896817806495 0.5015186940160935 0.0
H H 0.8250047889449311 -0.39149896817806495 0.5356886940160935 0.0
C C 0.9292733930208362 -0.44465633094696505 0.5531677181727329 0.0
H H 0.9481533930208361 -0.41772633094696504 0.6137277181727329 0.0
C C 0.9442884282062202 -0.48695863614336793 0.483242200179484 0.0
C C 0.9212119549084379 -0.5352451446721159 0.3785139954199914 0.0
H H 0.946981954908438 -0.5674151446721157 0.3425739954199915 0.0
C C 0.8649763835731926 -0.5252326686667954 0.3625074914490453 0.0
H H 0.8447563835731926 -0.5516026686667953 0.30206749144904527 0.0
C C 0.6653827184812685 -0.4058439460892986 0.4821546735737805 0.0
C C 0.6368849388350892 -0.3701366576239907 0.5471536814027601 0.0
C C 0.5847945357726202 -0.28693142614937583 0.5186456246342139 0.0
H H 0.5851745357726201 -0.27301142614937596 0.44761562463421384 0.0
C C 0.542282808496344 -0.25246208688632227 0.5772149863613267 0.0
H H 0.516662808496344 -0.2121420868863223 0.5463749863613268 0.0
C C 0.5429988819851345 -0.26546532267884904 0.6832193028965925 0.0
C C 0.5771198456794798 -0.3129286443232294 0.7392267838377927 0.0
H H 0.5742998456794799 -0.32799864432322934 0.8089967838377928 0.0
C C 0.6340307040368699 -0.3642925634831351 0.6719828289509847 0.0
C C 0.6848699091151724 -0.44260415483559956 0.72239699870417 0.0
C C 0.48590277544246724 -0.2325564605279324 0.7850537701398455 0.0
C C 0.47380310145806426 -0.18344199433074831 0.685778500900429 0.0
F F 0.4123398116948987 -0.22205322095936442 0.5763514149922471 0.0
F F 0.4663081252628519 -0.11424237066163234 0.6125675514410098 0.0
F F 0.40135664316176656 -0.16734354973583995 0.7510462845569016 0.0
N N 0.7403492388501558 -0.3524623460964403 0.20070918091186962 0.0
N N 0.8223330914694154 -0.45718725460033516 0.4142339032472412 0.0
O O 0.6719097335466646 -0.46843323913855117 0.511803893203673 0.0
O O 0.7018661142398023 -0.37584006000683173 0.42217292118403227 0.0
O O 0.7368893679014661 -0.44237658690409365 0.704491851901852 0.0
O O 0.6274304179451712 -0.47684968089579816 0.7905952238724012 0.0
Zn Zn 0.717961742335724 -0.4506172404436809 0.31787945123039346 0.0
