_cell_length_a 19.5206
_cell_length_b 17.9856
_cell_length_c 12.6054
_cell_angle_alpha 90.0
_cell_angle_beta 99.0355
_cell_angle_gamma 90.0
_symmetry_space_group_name_H-M         'P 1'
_symmetry_Int_Tables_number            1
loop_
_symmetry_equiv_pos_as_xyz
   'x, y, z'
                         
loop_
_atom_site_label
_atom_site_type_symbol
_atom_site_fract_x 
_atom_site_fract_y
_atom_site_fract_z
_atom_site_charge
C C 0.22835656809635618 0.8958322624061089 0.5869528954213248 0.0
H H 0.22723656809635617 0.9464022624061089 0.5720228954213248 0.0
C C 0.22093623390788922 0.8504134480957821 0.4936453555020528 0.0
H H 0.22221623390788922 0.8690834480957823 0.4251053555020528 0.0
C C 0.25159336786992675 0.7999541978396219 0.5448203559330048 0.0
C C 0.25343452382059795 0.7561855822247306 0.6624187334373676 0.0
H H 0.256004523820598 0.7057555822247307 0.6791787334373676 0.0
C C 0.24461984535633638 0.8220429534562417 0.7532616001079798 0.0
H H 0.24539984535633633 0.8049229534562415 0.8230316001079798 0.0
C C 0.3581695223118366 0.9443097202836847 0.9794997893914372 0.0
H H 0.3317495223118366 0.9116797202836848 1.0136697893914373 0.0
C C 0.40475630001066953 0.9528768488318741 1.0310153151802965 0.0
H H 0.42363630001066943 0.9259468488318741 1.0915753151802965 0.0
C C 0.4769408543101228 0.9988884467487906 0.9636639803778069 0.0
C C 0.433602158642191 1.0251243375853774 0.8734826134619748 0.0
H H 0.4593721586421909 1.0572943375853772 0.8375426134619747 0.0
C C 0.3649441012866623 1.0386344846583369 0.8366612622940937 0.0
H H 0.34472410128666225 1.0650044846583369 0.7762212622940935 0.0
C C 0.14558388346773002 0.9094678676102996 1.0060431640273257 0.0
C C 0.12633006008779524 0.86843930096487 1.0607746044522695 0.0
C C 0.075978761655899 0.8032386086138286 0.9907881717374927 0.0
H H 0.076358761655899 0.7893186086138285 0.9197581717374927 0.0
C C 0.05655826446431493 0.7508109317039434 1.058682077853321 0.0
H H 0.030938264464314923 0.7104909317039434 1.027842077853321 0.0
C C 0.027738563744319218 0.7696627150131973 1.1529409677012563 0.0
C C 0.10166850694031367 0.8463355859337349 1.220964857099373 0.0
H H 0.09884850694031368 0.8614055859337348 1.290734857099373 0.0
C C 0.12062509340621218 0.877697528491316 1.1619635035696514 0.0
C C 0.14556449463015303 0.9500831688495357 1.2349104605746106 0.0
C C 0.003161530631357742 0.7354834825018532 1.2672231702944847 0.0
C C -0.047121076095298406 0.6770173341118635 1.2196170646351514 0.0
F F -0.11581414778374895 0.7349504432180166 1.1095108018700492 0.0
F F -0.02993080162681496 0.6327634465739129 1.1224948994755763 0.0
F F -0.10301903923243942 0.6473497635542049 1.2291061281641982 0.0
N N 0.23609946187479292 0.8647699937219695 0.7109773312491399 0.0
N N 0.29333542330421786 0.9842869844918428 0.8836787754253351 0.0
O O 0.17182393727653622 0.9824755838951678 1.0113728671250855 0.0
O O 0.19957593782133615 0.8500819239748949 0.9273399788699987 0.0
O O 0.24202974464654517 0.9153008628951752 1.1771621000973211 0.0
O O 0.12340199407520837 1.0048062050251034 1.2200438888422507 0.0
Zn Zn 0.2252914888640398 0.9533923165748778 0.8048340064905791 0.0
C C -0.23325513173462542 0.9231567296588677 -0.13251035350393586 0.0
H H -0.2321351317346254 0.9737267296588678 -0.11758035350393586 0.0
C C -0.2564116189319427 0.8526040826285454 -0.03473955128856153 0.0
H H -0.25769161893194265 0.8712740826285454 0.033800448711438454 0.0
C C -0.25541463654662105 0.7863441103561379 -0.04998775507931707 0.0
C C -0.23269942787682962 0.7494662275340304 -0.13972427246061192 0.0
H H -0.2352694278768296 0.6990362275340303 -0.15648427246061192 0.0
C C -0.24518251769130048 0.7913737138791566 -0.21984966768287278 0.0
H H -0.24596251769130043 0.7742537138791565 -0.28961966768287273 0.0
C C -0.3334902133042122 0.9181884932624308 -0.4571809853041601 0.0
H H -0.3070702133042122 0.8855584932624311 -0.49135098530416016 0.0
C C -0.4258552362743578 0.9382807132721557 -0.5402048646269834 0.0
H H -0.4447352362743577 0.9113507132721556 -0.6007648646269833 0.0
C C -0.4584039559240686 1.0000163999200116 -0.4759784702465102 0.0
C C -0.4121667198185225 1.0324277722414656 -0.3818269998833538 0.0
H H -0.4379367198185224 1.0645977722414652 -0.3458869998833538 0.0
C C -0.36857106063732803 1.0302226502946759 -0.2951049490898375 0.0
H H -0.348351060637328 1.0565926502946759 -0.23466494908983737 0.0
C C -0.17998146434645584 0.9096811929473979 -0.498233540429519 0.0
C C -0.12977841901814027 0.8597999338433343 -0.5369316709875971 0.0
C C -0.08268967603053852 0.8064067222008192 -0.5391642088800083 0.0
H H -0.0830696760305385 0.7924867222008193 -0.4681342088800082 0.0
C C -0.029401804862060347 0.7527651517843642 -0.5396802734666991 0.0
H H -0.003781804862060348 0.7124451517843642 -0.5088402734666991 0.0
C C -0.01781003507097293 0.7673915634225333 -0.6577837472034046 0.0
C C -0.08431338166815801 0.8209794993334298 -0.7224215266612937 0.0
H H -0.08149338166815802 0.8360494993334298 -0.7921915266612939 0.0
C C -0.10000843121512981 0.8806015782488481 -0.6397563842302241 0.0
C C -0.17779193972782953 0.9400560338749707 -0.7145338999531051 0.0
C C 0.014867623152826467 0.7411207764015357 -0.7426292829472764 0.0
C C 0.055049518456683266 0.6848333195593974 -0.671793474218757 0.0
F F 0.10532201287845709 0.7180247505430014 -0.5985808407412572 0.0
F F 0.04871340343615386 0.6037799769091934 -0.5858526430798389 0.0
F F 0.08394202344596984 0.6515411309380936 -0.7489634749922638 0.0
N N -0.24336660174231553 0.8844719615979294 -0.2155390237430281 0.0
N N -0.3368333293022558 0.9578518013595047 -0.42114631103921457 0.0
O O -0.1612308153803914 0.9538925257935783 -0.4883920067614855 0.0
O O -0.18972562217880087 0.8834422020951747 -0.4347103154237217 0.0
O O -0.22439778820179737 0.92293246891404 -0.7379077914516993 0.0
O O -0.15238924896882136 0.9845759384777981 -0.7562333060369624 0.0
Zn Zn -0.23738806312338057 0.9317844579487778 -0.3366550822577558 0.0
C C 0.724162667508104 1.3942675623201832 0.6086696033367957 0.0
H H 0.7230426675081039 1.444837562320183 0.5937396033367957 0.0
C C 0.7578330637743111 1.347275813024919 0.5132288420932386 0.0
H H 0.7591130637743111 1.365945813024919 0.4446888420932386 0.0
C C 0.7519400652875609 1.276466756047483 0.5127634370759024 0.0
C C 0.7330982117224925 1.237974905863235 0.653046127833499 0.0
H H 0.7356682117224922 1.187544905863235 0.669806127833499 0.0
C C 0.7388592098095671 1.3034082560127382 0.7278024713720207 0.0
H H 0.739639209809567 1.2862882560127382 0.7975724713720207 0.0
C C 0.8532522708815942 1.4250828091743974 0.9735662395482273 0.0
H H 0.8268322708815941 1.3924528091743973 1.0077362395482272 0.0
C C 0.9289527867541881 1.435481308595505 1.0252596272233638 0.0
H H 0.9478327867541881 1.408551308595505 1.0858196272233638 0.0
C C 0.9519410874532542 1.4556608079776727 0.980094655758046 0.0
C C 0.9330997810786371 1.5265715344628015 0.9068102901204286 0.0
H H 0.9588697810786372 1.5587415344628015 0.8708702901204285 0.0
C C 0.8642961117422641 1.510414127992063 0.8248004053805112 0.0
H H 0.8440761117422639 1.5367841279920629 0.7643604053805111 0.0
C C 0.6619385427274728 1.3987140450801978 0.9788951335168462 0.0
C C 0.6406931413881137 1.362296647563205 1.0415154566107458 0.0
C C 0.5891568170696538 1.2828092650910765 1.0237330041787822 0.0
H H 0.5895368170696538 1.2688892650910766 0.9527030041787822 0.0
C C 0.5543301871512571 1.254891975425697 1.0735849067703334 0.0
H H 0.5287101871512573 1.2145719754256972 1.0427449067703336 0.0
C C 0.5412801971244176 1.305150910922739 1.1880341654043052 0.0
C C 0.5716134767625793 1.338128468889035 1.2129070614779207 0.0
H H 0.5687934767625794 1.3531984688890348 1.282677061477921 0.0
C C 0.6130740607988002 1.3764535007969616 1.164755004411513 0.0
C C 0.6896073243912496 1.436376883277893 1.2370759265548128 0.0
C C 0.4839661078042404 1.2401591699698893 1.222477701786303 0.0
C C 0.46383993849739547 1.164738380321456 1.1914948513529184 0.0
F F 0.40673642661374415 1.2117127400227354 1.0804178961909812 0.0
F F 0.47558804921096337 1.1321362998855664 1.1275575134756193 0.0
F F 0.4067919556599402 1.1480396855774109 1.2555984705872327 0.0
N N 0.7377499549238878 1.3804052548500994 0.7228975566864089 0.0
N N 0.832968447411706 1.4608639359162838 0.9131472936241388 0.0
O O 0.6732429468288429 1.4714648405780097 0.9933651052254208 0.0
O O 0.6842332964667341 1.3860918578939228 0.8976001684716545 0.0
O O 0.7384226424770358 1.4308299901528583 1.1874281305604735 0.0
O O 0.6606791553367534 1.468034261817233 1.2604023200870103 0.0
Zn Zn 0.7339397412665688 1.4358114564021935 0.8425392855848387 0.0
C C 0.2576084976482986 1.3833046900692143 -0.13455476754111834 0.0
H H 0.2587284976482986 1.4338746900692143 -0.11962476754111835 0.0
C C 0.28279952171067385 1.3524515259403744 -0.0012770069976237336 0.0
H H 0.28151952171067396 1.3711215259403744 0.06726299300237625 0.0
C C 0.250618993750621 1.2849156984182724 -0.045657370702647984 0.0
C C 0.2557271812492849 1.265836475551291 -0.1622247349648525 0.0
H H 0.25315718124928477 1.215406475551291 -0.17898473496485254 0.0
C C 0.2509692535701848 1.283809068674952 -0.24103554330142632 0.0
H H 0.25018925357018484 1.266689068674952 -0.3108055433014263 0.0
C C 0.14050145902108874 1.4296699093677998 -0.4906361069993168 0.0
H H 0.16692145902108874 1.3970399093677999 -0.5248061069993168 0.0
C C 0.08034069888701431 1.4174841402287486 -0.5129361388568886 0.0
H H 0.061460698887014296 1.3905541402287487 -0.5734961388568885 0.0
C C 0.03611867065414245 1.4969329350343041 -0.47150473517171604 0.0
C C 0.06579534303721692 1.5478861931692267 -0.4024660841706564 0.0
H H 0.040025343037216915 1.5800561931692267 -0.3665260841706564 0.0
C C 0.14170583065819603 1.496601831227714 -0.3690931453349267 0.0
H H 0.16192583065819605 1.522971831227714 -0.3086531453349266 0.0
C C 0.3352502668694268 1.412373821165491 -0.5025958949094924 0.0
C C 0.3816135006836847 1.3536083597698565 -0.5547424306475843 0.0
C C 0.4237860531944907 1.3035433627863557 -0.4968016299634346 0.0
H H 0.4234060531944907 1.289623362786356 -0.4257716299634345 0.0
C C 0.4595435033504652 1.272360347252756 -0.5725249462586945 0.0
H H 0.48516350335046526 1.2320403472527564 -0.5416849462586945 0.0
C C 0.4757792003873541 1.2719508410061013 -0.6550683075190933 0.0
C C 0.41092879054137255 1.3475415102535724 -0.7157304316622404 0.0
H H 0.41374879054137237 1.3626115102535723 -0.7855004316622405 0.0
C C 0.3878444328408912 1.3722045447908953 -0.6722030175851371 0.0
C C 0.32104830678260093 1.4491959548580582 -0.6967073709785204 0.0
C C 0.501876185867448 1.211546994122467 -0.7488377239752351 0.0
C C 0.5560230559936089 1.1888791262794527 -0.6795251448434844 0.0
F F 0.6042919500194863 1.2232330838286116 -0.6229557156249458 0.0
F F 0.5393749573313902 1.1168850610726913 -0.644700517216573 0.0
F F 0.6077243385396308 1.139523027688998 -0.7170597365485518 0.0
N N 0.26736542073188285 1.3939699497540181 -0.20323908851314135 0.0
N N 0.19991725836071172 1.4612369398729408 -0.39329833034991357 0.0
O O 0.31630090115834 1.4705731967985975 -0.504788771842083 0.0
O O 0.3133298497536099 1.3703953904509223 -0.4371582632986806 0.0
O O 0.2596454521664968 1.4449503430125232 -0.7310178394623259 0.0
O O 0.3549883390128417 1.4668958614653889 -0.7613590488893321 0.0
Zn Zn 0.2779750140539717 1.4582899388793515 -0.31777405043812246 0.0
C C -0.2390536777152418 -0.869747435606917 -0.6081828250055602 0.0
H H -0.2379336777152418 -0.920317435606917 -0.5932528250055602 0.0
C C -0.22546923121899276 -0.8547419465574917 -0.5156571793828378 0.0
H H -0.22674923121899276 -0.8734119465574918 -0.44711717938283785 0.0
C C -0.2577079351537217 -0.7718334642263428 -0.5704430783627293 0.0
C C -0.24460233343840676 -0.7311704861518779 -0.6279959469577162 0.0
H H -0.24717233343840675 -0.6807404861518779 -0.6447559469577162 0.0
C C -0.2320304849472059 -0.8035823963295058 -0.7421465571187624 0.0
H H -0.2328104849472059 -0.7864623963295058 -0.8119165571187624 0.0
C C -0.3597864621201318 -0.9310423134559542 -1.00971406474558 0.0
H H -0.3333664621201319 -0.8984123134559544 -1.04388406474558 0.0
C C -0.4138402245785838 -0.9462502636628423 -1.0425589755100988 0.0
H H -0.4327202245785838 -0.9193202636628423 -1.1031189755100987 0.0
C C -0.47765516677267345 -0.9963595613102912 -1.001206298964819 0.0
C C -0.4427072735091547 -1.005504706965882 -0.8791736863715677 0.0
H H -0.4684772735091545 -1.0376747069658818 -0.8432336863715676 0.0
C C -0.35171380833995974 -1.036301736075793 -0.8549846375482812 0.0
H H -0.33149380833995973 -1.062671736075793 -0.7945446375482811 0.0
C C -0.14624586626999347 -0.8952106699020724 -0.9782893452370724 0.0
C C -0.11482304811848304 -0.8674586376536244 -1.062310649900869 0.0
C C -0.08470455501877987 -0.8051919159469713 -1.03093923418123 0.0
H H -0.08508455501877984 -0.7912719159469712 -0.9599092341812301 0.0
C C -0.032702025443860694 -0.760569266603822 -1.0871545487961907 0.0
H H -0.007082025443860703 -0.7202492666038218 -1.056314548796191 0.0
C C -0.020050407478617416 -0.7766723853278907 -1.1633076805209275 0.0
C C -0.08181983246516368 -0.8555223882539388 -1.2269169898597263 0.0
H H -0.07899983246516369 -0.8705923882539387 -1.2966869898597264 0.0
C C -0.1149830702452893 -0.8712582913068869 -1.1538520118877502 0.0
C C -0.1662347607082366 -0.9223413855812811 -1.2186675533148799 0.0
C C 0.013223708692814062 -0.7369756559228265 -1.2283084012701586 0.0
C C 0.04536814541930025 -0.6643630701242909 -1.2061022697299413 0.0
F F 0.08869203454374901 -0.708295466339589 -1.1152874633384338 0.0
F F 0.044494502506260684 -0.6149676322528477 -1.1289196959909125 0.0
F F 0.09227488074649962 -0.6611705437680975 -1.2387628916244688 0.0
N N -0.25223455160199365 -0.8825615384701722 -0.6830309595363013 0.0
N N -0.3310229407101171 -0.9686570556434869 -0.9226426595356931 0.0
O O -0.1386949561196473 -0.98407523663507 -0.9693324011048879 0.0
O O -0.19739410886310327 -0.8453742118145128 -0.9373436607392797 0.0
O O -0.22565445384681665 -0.9319743834342061 -1.2138340307073818 0.0
O O -0.12944419088120782 -0.991908207944956 -1.273737867878512 0.0
Zn Zn -0.21205089245736874 -0.9423063439892531 -0.8538587614243485 0.0
C C 0.24239609943799686 -0.8810414371959326 0.12811331512113672 0.0
H H 0.24127609943799685 -0.9316114371959326 0.11318331512113672 0.0
C C 0.27157523865986855 -0.8567362694838272 0.030118094057465565 0.0
H H 0.27285523865986855 -0.8754062694838273 -0.03842190594253442 0.0
C C 0.2594228864545431 -0.77488082600469 0.050773316809720324 0.0
C C 0.24775386623995943 -0.7497001689924633 0.13042867781110293 0.0
H H 0.25032386623995945 -0.6992701689924633 0.1471886778111029 0.0
C C 0.2427130463971953 -0.8059301955448468 0.24339682307588556 0.0
H H 0.24349304639719527 -0.7888101955448467 0.3131668230758855 0.0
C C 0.34847954947261983 -0.934058735331067 0.4651149207892974 0.0
H H 0.32205954947261983 -0.9014287353310672 0.4992849207892974 0.0
C C 0.4219124542722746 -0.9619501311260487 0.5265125262640566 0.0
H H 0.44079245427227454 -0.9350201311260486 0.5870725262640566 0.0
C C 0.4615200566750386 -0.9973520318726894 0.46709252469167506 0.0
C C 0.43453590514728274 -1.0366339300472454 0.3639287148207605 0.0
H H 0.46030590514728265 -1.0688039300472452 0.3279887148207606 0.0
C C 0.3571329134225017 -1.0370823231741513 0.3261234285560002 0.0
H H 0.3369129134225017 -1.0634523231741515 0.26568342855600013 0.0
C C 0.17043236617947682 -0.9100986358828232 0.5137013631014163 0.0
C C 0.14048836865517414 -0.8625065778570893 0.5482449283774258 0.0
C C 0.08800419696445887 -0.8048504793010841 0.5147965412733609 0.0
H H 0.08838419696445883 -0.7909304793010842 0.44376654127336085 0.0
C C 0.03672608518121386 -0.7498361269488757 0.5350596325456707 0.0
H H 0.011106085181213862 -0.7095161269488756 0.5042196325456707 0.0
C C 0.036790810195815676 -0.7891630399278261 0.6784610697829637 0.0
C C 0.07378455027007551 -0.832882416305164 0.7209246439576813 0.0
H H 0.07096455027007552 -0.8479524163051639 0.7906946439576814 0.0
C C 0.10940973212524008 -0.876448958333632 0.6389631711806871 0.0
C C 0.17443739435819752 -0.9327808127024365 0.738098031558585 0.0
C C 0.009415413674485486 -0.7367828532565432 0.7616805799590319 0.0
C C -0.04877706272592859 -0.6649641947859223 0.6656451466907267 0.0
F F -0.09403906379893477 -0.7208472866397043 0.6128430738278425 0.0
F F -0.05279558861914241 -0.6003881202645212 0.5999180784554903 0.0
F F -0.08201946136124386 -0.6575168247857037 0.7582341142959286 0.0
N N 0.2580453231391409 -0.8876653735424036 0.23429203986686775 0.0
N N 0.31807340299159303 -0.9712471737821508 0.42669814747901097 0.0
O O 0.17032673674797041 -0.9858525037811202 0.4881157273583844 0.0
O O 0.20027916579393729 -0.8636937528545893 0.434663853793983 0.0
O O 0.22727184450806318 -0.92669904770196 0.7371660266245015 0.0
O O 0.17761358421065246 -0.9924872646284338 0.8071555406183354 0.0
Zn Zn 0.21790446092811605 -0.9373585975905301 0.30164860250715275 0.0
C C 0.2654363689413693 -0.37935094073846903 -0.6017524879985762 0.0
H H 0.26655636894136925 -0.4299209407384689 -0.5868224879985762 0.0
C C 0.2506752398475396 -0.32990488306201904 -0.5381441284108893 0.0
H H 0.24939523984753967 -0.34857488306201906 -0.46960412841088933 0.0
C C 0.2443085713860704 -0.29685486518879156 -0.5268197683576514 0.0
C C 0.27117345915682123 -0.24601099198859802 -0.6694359457622052 0.0
H H 0.26860345915682116 -0.19558099198859802 -0.6861959457622052 0.0
C C 0.2669476177425096 -0.2884598161651613 -0.7488279315889769 0.0
H H 0.2661676177425096 -0.2713398161651613 -0.8185979315889769 0.0
C C 0.15625552857453356 -0.44380503010144046 -0.9774137325067476 0.0
H H 0.18267552857453354 -0.4111750301014405 -1.0115837325067476 0.0
C C 0.07205641914687484 -0.4576778988787498 -1.0505791147881987 0.0
H H 0.053176419146874855 -0.43074789887874976 -1.1111391147881986 0.0
C C 0.04732169227149405 -0.49331491350798307 -0.9702857324236761 0.0
C C 0.0637498183009342 -0.5255227873464395 -0.9199435313341086 0.0
H H 0.03797981830093419 -0.5576927873464392 -0.8840035313341085 0.0
C C 0.13699904139779262 -0.5272577636679141 -0.8576322691940493 0.0
H H 0.15721904139779266 -0.5536277636679141 -0.7971922691940492 0.0
C C 0.32876440770981374 -0.3748376819019054 -1.0045770399889735 0.0
C C 0.365454159988155 -0.37243237653006517 -1.0766036838405844 0.0
C C 0.40346107939822307 -0.2914634555471764 -1.0127846939867267 0.0
H H 0.403081079398223 -0.2775434555471764 -0.9417546939867266 0.0
C C 0.457558991017741 -0.27096002620611637 -1.0750108150913205 0.0
H H 0.48317899101774087 -0.23064002620611637 -1.0441708150913207 0.0
C C 0.4649388890911923 -0.2711150000266748 -1.1629230733568308 0.0
C C 0.4141488974045126 -0.3480635689258253 -1.2266120959312383 0.0
H H 0.4169688974045125 -0.36313356892582527 -1.2963820959312387 0.0
C C 0.38211370982729503 -0.363901257636085 -1.1638966664752732 0.0
C C 0.33334209297021616 -0.41716965172155807 -1.206614965185611 0.0
C C 0.5055301965113036 -0.23407161312605096 -1.232730748621529 0.0
C C 0.5646134601260964 -0.18241000671375684 -1.1556336953785593 0.0
F F 0.5974779570287345 -0.2367972345212258 -1.105678232740389 0.0
F F 0.5130011594402863 -0.10334001814791459 -1.1672173749694645 0.0
F F 0.5840492979632317 -0.15166311191571236 -1.2712420532066002 0.0
N N 0.25428347581231797 -0.3878482609871615 -0.6986269093780748 0.0
N N 0.18702447679744635 -0.4684316245313879 -0.8857502335046883 0.0
O O 0.34316025671710076 -0.48370878837729997 -0.9978166468316992 0.0
O O 0.3074136227328112 -0.35024185563843047 -0.9274699613265656 0.0
O O 0.27908926206734425 -0.422853613243879 -1.2143884880018216 0.0
O O 0.36203995471347533 -0.5056752009834907 -1.2690235590370695 0.0
Zn Zn 0.27023240496108497 -0.44975327990928277 -0.8374837489093836 0.0
C C 0.7409957297856768 -0.4160840248946011 0.13515863266167888 0.0
H H 0.739875729785677 -0.4666540248946011 0.12022863266167888 0.0
C C 0.7638416609717116 -0.34722924179330494 0.045178088641558936 0.0
H H 0.7651216609717116 -0.365899241793305 -0.023361911358441047 0.0
C C 0.7476368883257828 -0.27323345774566526 0.04873564890273579 0.0
C C 0.7728314341225472 -0.24748803361001084 0.12901586051722305 0.0
H H 0.7754014341225473 -0.19705803361001087 0.14577586051722302 0.0
C C 0.7304497485428062 -0.32916839395388875 0.21984830267469707 0.0
H H 0.7312297485428062 -0.3120483939538887 0.289618302674697 0.0
C C 0.8428152461562388 -0.43616125573421405 0.468125865041672 0.0
H H 0.8163952461562387 -0.40353125573421406 0.502295865041672 0.0
C C 0.9289056710399092 -0.4275153583424741 0.518402470904496 0.0
H H 0.9477856710399092 -0.40058535834247416 0.5789624709044959 0.0
C C 0.9843137903052828 -0.47835891103207767 0.4788980156954056 0.0
C C 0.9504173307486322 -0.540303473106527 0.398063130537063 0.0
H H 0.9761873307486325 -0.5724734731065267 0.362123130537063 0.0
C C 0.8644959258090436 -0.5174311281797309 0.3594365495503348 0.0
H H 0.8442759258090436 -0.5438011281797308 0.2989965495503348 0.0
C C 0.6619782872939777 -0.41674853244766386 0.5137123328931319 0.0
C C 0.6214792427472148 -0.35154099479802403 0.5411946176993396 0.0
C C 0.5748148090491618 -0.29441944348215165 0.5236441854132142 0.0
H H 0.5751948090491616 -0.2804994434821518 0.45261418541321413 0.0
C C 0.557673520174017 -0.27004963114725195 0.5731025264263085 0.0
H H 0.5320535201740169 -0.22972963114725198 0.5422625264263085 0.0
C C 0.5316718486153204 -0.2831894112273676 0.6885613176767811 0.0
C C 0.5891440407128334 -0.357424690220822 0.7065583823236461 0.0
H H 0.5863240407128337 -0.372494690220822 0.7763283823236462 0.0
C C 0.6234566667149232 -0.37423738058923445 0.6608385634442001 0.0
C C 0.6614305852017524 -0.4567374020389576 0.702620158838507 0.0
C C 0.4904360070724279 -0.23115665577602246 0.7416269894143042 0.0
C C 0.4567630739032219 -0.19267960387737365 0.7072422879148171 0.0
F F 0.4137160084098024 -0.21319832236315614 0.6065570736045064 0.0
F F 0.4480567676002333 -0.10671797236717394 0.6322287870749522 0.0
F F 0.4114148315104382 -0.15862473991495357 0.7746708209274432 0.0
N N 0.7527377967003896 -0.37336449281061435 0.2181321290348726 0.0
N N 0.8181481237555863 -0.4607662502039592 0.40891163831457256 0.0
O O 0.6834479594661317 -0.4831793265212758 0.5091381926855606 0.0
O O 0.6915855952828309 -0.3815848076753799 0.4427197967633006 0.0
O O 0.7413369568227918 -0.45730966084872876 0.7238392643194947 0.0
O O 0.65036193797996 -0.5133843423961806 0.7729029882724874 0.0
Zn Zn 0.7212100475747063 -0.4534914049548625 0.32671629711805183 0.0
