_cell_length_a 19.5206
_cell_length_b 17.9856
_cell_length_c 12.6054
_cell_angle_alpha 90.0
_cell_angle_beta 99.0355
_cell_angle_gamma 90.0
_symmetry_space_group_name_H-M         'P 1'
_symmetry_Int_Tables_number            1
loop_
_symmetry_equiv_pos_as_xyz
   'x, y, z'
                         
loop_
_atom_site_label
_atom_site_type_symbol
_atom_site_fract_x 
_atom_site_fract_y
_atom_site_fract_z
_atom_site_charge
C C 0.2157743002996673 0.8958736234258247 0.6032792841180035 0.0
H H 0.21465430029966728 0.9464436234258246 0.5883492841180034 0.0
C C 0.2475388541410825 0.8396422499910055 0.5574405745760548 0.0
H H 0.2488188541410825 0.8583122499910055 0.4889005745760548 0.0
C C 0.2453126343195078 0.7753232694746325 0.5594870846773558 0.0
C C 0.2483082852189222 0.7488322736897979 0.6291556755323959 0.0
H H 0.25087828521892225 0.6984022736897979 0.6459156755323959 0.0
C C 0.23396104889662536 0.7995817929434237 0.7142264181066859 0.0
H H 0.23474104889662536 0.7824617929434237 0.7839964181066859 0.0
C C 0.34884993764042177 0.9400621136966864 0.9841908379834914 0.0
H H 0.32242993764042177 0.9074321136966864 1.0183608379834914 0.0
C C 0.43786801073430565 0.9651079302191038 1.0439348424919612 0.0
H H 0.4567480107343056 0.9381779302191038 1.1044948424919612 0.0
C C 0.4775628367823086 1.0286219864910713 0.9652871309620321 0.0
C C 0.43585494577325157 1.0240784836264938 0.872615450152132 0.0
H H 0.46162494577325147 1.0562484836264936 0.836675450152132 0.0
C C 0.37509846513345035 1.0168276838542951 0.8680811915080562 0.0
H H 0.3548784651334503 1.0431976838542951 0.8076411915080561 0.0
C C 0.17249400889498373 0.8922195726705403 1.0237967184740073 0.0
C C 0.13600683546873682 0.8465997638001393 1.0313265332579957 0.0
C C 0.057521706685478964 0.7973124952733737 0.9989374434221694 0.0
H H 0.05790170668547894 0.7833924952733736 0.9279074434221692 0.0
C C 0.03869513891018922 0.7621162065103662 1.0601367370151487 0.0
H H 0.013075138910189217 0.7217962065103661 1.029296737015149 0.0
C C 0.039669313511798185 0.7823743026579726 1.1779143330686397 0.0
C C 0.0737274864370636 0.841975103288966 1.2384975841752712 0.0
H H 0.07090748643706365 0.8570451032889658 1.3082675841752716 0.0
C C 0.13643479366750025 0.8766083492134369 1.1589021646487643 0.0
C C 0.15894243711219191 0.9523577880215246 1.2185083610615541 0.0
C C -0.008310201001937195 0.7280373075153472 1.2745003508573822 0.0
C C -0.055423955813133995 0.6643117431629582 1.1885034188692598 0.0
F F -0.08441275460622064 0.7280203683628216 1.127611606484112 0.0
F F -0.022312716034399525 0.6079016254998179 1.1380264549283339 0.0
F F -0.08894399134188515 0.6366317030573584 1.237073720198847 0.0
N N 0.239592623682843 0.8797701378363171 0.7213700297227787 0.0
N N 0.3357563363300004 0.9593110676503191 0.9322935676832819 0.0
O O 0.1783351050984845 0.9690382312327535 1.0060978832563794 0.0
O O 0.18656952217937714 0.8693793873570077 0.9204492299714077 0.0
O O 0.2351724841529292 0.9201033668693026 1.2387748613751515 0.0
O O 0.12902245650168462 1.0130472790668197 1.2614505646410303 0.0
Zn Zn 0.2340107174263724 0.9519900779396305 0.8656953591941808 0.0
C C -0.2349392626674884 0.8996974904936212 -0.10836228374436731 0.0
H H -0.2338192626674884 0.9502674904936211 -0.09343228374436731 0.0
C C -0.21730262356781388 0.8410407912424279 -0.024512172713594155 0.0
H H -0.2185826235678139 0.8597107912424281 0.044027827286405835 0.0
C C -0.24812460590912233 0.7852385510724121 -0.05984328176691983 0.0
C C -0.2332143444854912 0.7498406063352719 -0.13916135097383706 0.0
H H -0.23578434448549118 0.6994106063352719 -0.15592135097383705 0.0
C C -0.23241599631694243 0.8103184341636414 -0.2206271972965972 0.0
H H -0.23319599631694238 0.7931984341636412 -0.2903971972965972 0.0
C C -0.3576574531103473 0.9408165350660319 -0.5108932954498906 0.0
H H -0.3312374531103473 0.908186535066032 -0.5450632954498906 0.0
C C -0.42164448503038043 0.9666134316782214 -0.5154862282566393 0.0
H H -0.4405244850303804 0.9396834316782214 -0.5760462282566392 0.0
C C -0.46852429672807144 0.9822926641070038 -0.477194363198377 0.0
C C -0.40657472740796563 1.0212033051225486 -0.37301819615718673 0.0
H H -0.4323447274079656 1.0533733051225485 -0.33707819615718676 0.0
C C -0.3666740851018884 1.007624703182991 -0.3630062534997886 0.0
H H -0.34645408510188835 1.033994703182991 -0.30256625349978855 0.0
C C -0.17260175946051198 0.9079827924224981 -0.47994252049975045 0.0
C C -0.13449315629901215 0.85003906376388 -0.5549694785106075 0.0
C C -0.09294933311430151 0.8016410600481173 -0.5123566737536753 0.0
H H -0.09332933311430149 0.7877210600481174 -0.44132667375367524 0.0
C C -0.04526587248611009 0.7635047282164208 -0.5859146699093385 0.0
H H -0.019645872486110088 0.7231847282164208 -0.5550746699093385 0.0
C C -0.045862382947938186 0.7817662992174069 -0.6663732551330805 0.0
C C -0.07575206049224391 0.8527126414624463 -0.7251942933522261 0.0
H H -0.07293206049224392 0.8677826414624462 -0.7949642933522263 0.0
C C -0.1078053638804458 0.8723961518364185 -0.6674773050592777 0.0
C C -0.18210807508451088 0.9371754295614386 -0.7254040171033103 0.0
C C -0.0030876837820479077 0.7142807922271115 -0.7398113798401387 0.0
C C 0.038451788342871204 0.6869915317391879 -0.6956574261472965 0.0
F F 0.0851880590514172 0.7188408752848289 -0.6257193765903417 0.0
F F 0.03325176820002955 0.6249561545602335 -0.642238811608491 0.0
F F 0.08932636720454497 0.6423897430973544 -0.717872458788129 0.0
N N -0.24271361077742384 0.8811305893107723 -0.23548762539047277 0.0
N N -0.32517644751497965 0.9632726516347694 -0.43025554261965165 0.0
O O -0.1758599325108835 0.9919126111716539 -0.4750983256184545 0.0
O O -0.1818074649212034 0.8478454650492669 -0.40649879447522697 0.0
O O -0.21391675047504846 0.9358327917344218 -0.6600882087761685 0.0
O O -0.17760382832064117 0.9735968022025203 -0.7734421144639946 0.0
Zn Zn -0.23300174219163097 0.9456924060322959 -0.2997141992514296 0.0
C C 0.7600900529279287 1.409869777358887 0.639690265928589 0.0
H H 0.7589700529279287 1.460439777358887 0.624760265928589 0.0
C C 0.7456630528872485 1.324106523446369 0.5291231837992043 0.0
H H 0.7469430528872486 1.3427765234463689 0.4605831837992043 0.0
C C 0.7528050869798714 1.273227660540091 0.5465503082223693 0.0
C C 0.7464442572029629 1.2598050359615087 0.6478342415736247 0.0
H H 0.7490142572029628 1.2093750359615087 0.6645942415736247 0.0
C C 0.7318886339372808 1.3134989554169951 0.7520833496742377 0.0
H H 0.7326686339372807 1.296378955416995 0.8218533496742377 0.0
C C 0.8431731666896333 1.443453389041471 0.968468456253504 0.0
H H 0.8167531666896332 1.4108233890414708 1.002638456253504 0.0
C C 0.9156029720268057 1.4417623513002167 1.0444156727592193 0.0
H H 0.9344829720268057 1.4148323513002168 1.1049756727592193 0.0
C C 0.9717503063520243 1.4792320994176076 0.9977759783353323 0.0
C C 0.9371838799875367 1.5422739069186453 0.849025507904375 0.0
H H 0.9629538799875368 1.574443906918645 0.813085507904375 0.0
C C 0.868243307704427 1.5212939180507001 0.8694905960216174 0.0
H H 0.848023307704427 1.5476639180507 0.8090505960216173 0.0
C C 0.6698277538210063 1.3980266499067169 0.9890946399618221 0.0
C C 0.6258543273996993 1.369269412196149 1.056136214042777 0.0
C C 0.5745653173581472 1.3232887785950302 1.002697757064222 0.0
H H 0.574945317358147 1.3093687785950305 0.9316677570642218 0.0
C C 0.5444757459412458 1.2477743104071821 1.0449193103002752 0.0
H H 0.5188557459412458 1.2074543104071824 1.0140793103002752 0.0
C C 0.5426691426826459 1.2710253464524315 1.1675480323146612 0.0
C C 0.5489621974694523 1.3447667613700383 1.2258609350842287 0.0
H H 0.5461421974694524 1.3598367613700382 1.295630935084229 0.0
C C 0.627189671917843 1.371670016052221 1.1595242058994404 0.0
C C 0.6501359940591408 1.4453778915813593 1.221885706404333 0.0
C C 0.49339522914008815 1.2277622660710648 1.2191996667901033 0.0
C C 0.42856778869788364 1.186931430777493 1.1666696047782756 0.0
F F 0.40935027826590864 1.2124742145450436 1.1208509312628956 0.0
F F 0.473907129800305 1.1400128071561773 1.1115929891294911 0.0
F F 0.38596941366621224 1.1503242302012908 1.2546318036743123 0.0
N N 0.7256623347413093 1.3750785362086666 0.7243516929255118 0.0
N N 0.8120001820296275 1.46321238508181 0.8828208514788873 0.0
O O 0.6857782222222445 1.482785411069525 1.012055324806458 0.0
O O 0.6970608695390124 1.3591916916972564 0.9545802433519938 0.0
O O 0.7391163990850054 1.4063949828544116 1.1966260247482123 0.0
O O 0.6361393037895317 1.5106212576744142 1.2605643343669497 0.0
Zn Zn 0.7218610658813316 1.4600028160029126 0.822169946996108 0.0
C C 0.25840466374390975 1.3935436972377768 -0.09338930734613708 0.0
H H 0.2595246637439097 1.4441136972377768 -0.07845930734613708 0.0
C C 0.25246634696227327 1.3457573821650801 -0.031189170974853637 0.0
H H 0.2511863469622733 1.36442738216508 0.03735082902514635 0.0
C C 0.2332716664425642 1.274747214784017 -0.048596668642216824 0.0
C C 0.24082872235914843 1.2587980521015847 -0.14893933627460462 0.0
H H 0.23825872235914833 1.208368052101585 -0.16569933627460465 0.0
C C 0.23753489376087308 1.3218442629820324 -0.23468311901248404 0.0
H H 0.2367548937608731 1.3047242629820324 -0.304453119012484 0.0
C C 0.1422569796922114 1.4117669051562858 -0.48499033153209153 0.0
H H 0.16867697969221143 1.3791369051562856 -0.5191603315320915 0.0
C C 0.07586825696764671 1.4686997324371667 -0.5361858356559872 0.0
H H 0.056988256967646686 1.441769732437167 -0.5967458356559872 0.0
C C 0.020544022978756026 1.4870639480916625 -0.4596806531445317 0.0
C C 0.05669255122809957 1.519877316830444 -0.4065269219141628 0.0
H H 0.030922551228099563 1.5520473168304438 -0.3705869219141628 0.0
C C 0.13476846618447352 1.5341493048263422 -0.3060525874368964 0.0
H H 0.1549884661844735 1.560519304826342 -0.24561258743689637 0.0
C C 0.3306311368128718 1.3820688257689488 -0.47240381264488684 0.0
C C 0.4027120446346272 1.3447204552208925 -0.524832527023001 0.0
C C 0.41320788261727426 1.3098492660706 -0.5155344744614995 0.0
H H 0.4128278826172743 1.2959292660706 -0.4445044744614994 0.0
C C 0.47396862808353174 1.265879954369105 -0.5575499351758939 0.0
H H 0.4995886280835317 1.2255599543691051 -0.5267099351758939 0.0
C C 0.4525879309899788 1.2830643702831 -0.6702795548424152 0.0
C C 0.40935551256304564 1.3329264107547716 -0.712993674504322 0.0
H H 0.4121755125630455 1.3479964107547715 -0.7827636745043223 0.0
C C 0.381872090292097 1.3786475140439105 -0.6652096298617542 0.0
C C 0.3156257689867299 1.4427677597053583 -0.7138356858100984 0.0
C C 0.4943073518540251 1.24155651300757 -0.7366455409256034 0.0
C C 0.5728841550730309 1.1958093272577086 -0.6656523335277664 0.0
F F 0.6047785154606252 1.204182659486745 -0.6038588581609922 0.0
F F 0.5308204319153236 1.1067781043022982 -0.6106933270525399 0.0
F F 0.5955714639944673 1.1336399653980944 -0.7401965036637823 0.0
N N 0.2681128395453373 1.3938744494676538 -0.21398826178645428 0.0
N N 0.14784983780626168 1.4697206848557516 -0.4100346700849211 0.0
O O 0.2996330105188508 1.4891685614756427 -0.5071044797066734 0.0
O O 0.30806995838060053 1.3633611152178604 -0.4051450300673533 0.0
O O 0.2734917051245177 1.439244952664857 -0.7037345211437862 0.0
O O 0.35049835315753824 1.4654834060361805 -0.7510045088323072 0.0
Zn Zn 0.2667363559037571 1.458198506585474 -0.32773162215859886 0.0
C C -0.24380775039945823 -0.9113476607188752 -0.6173850941191318 0.0
H H -0.2426877503994582 -0.9619176607188752 -0.6024550941191318 0.0
C C -0.24725645203922758 -0.838131653879435 -0.5350420478192259 0.0
H H -0.2485364520392276 -0.8568016538794351 -0.46650204781922594 0.0
C C -0.24247358928508714 -0.7529668539897441 -0.5521061767782987 0.0
C C -0.2530971462825186 -0.7540987717281749 -0.6610501469782767 0.0
H H -0.25566714628251863 -0.7036687717281748 -0.6778101469782767 0.0
C C -0.2313211885318922 -0.8190854619274998 -0.7033559370674564 0.0
H H -0.2321011885318922 -0.8019654619274996 -0.7731259370674564 0.0
C C -0.36440212048934195 -0.9345931320959343 -0.9591349042710119 0.0
H H -0.33798212048934195 -0.9019631320959344 -0.9933049042710118 0.0
C C -0.42729250016065073 -0.9484751871995956 -1.0010834645755955 0.0
H H -0.4461725001606507 -0.9215451871995956 -1.0616434645755952 0.0
C C -0.4578398346490315 -0.9946593531005713 -0.9628739077619693 0.0
C C -0.43365011903393813 -1.0298700398961267 -0.8785722968125232 0.0
H H -0.459420119033938 -1.0620400398961263 -0.8426322968125232 0.0
C C -0.3469966300358251 -1.0194622524880221 -0.8572415745007986 0.0
H H -0.32677663003582513 -1.0458322524880221 -0.7968015745007985 0.0
C C -0.180490566589484 -0.8981196679730581 -1.0054217496734474 0.0
C C -0.12101280892087636 -0.8500469902709362 -1.0473460608346372 0.0
C C -0.06811345258923682 -0.7965485906908859 -0.9890217570939019 0.0
H H -0.0684934525892368 -0.7826285906908858 -0.9179917570939019 0.0
C C -0.047641740454428524 -0.7663068114136152 -1.0644795359754653 0.0
H H -0.022021740454428528 -0.7259868114136152 -1.0336395359754653 0.0
C C -0.03465997657413839 -0.7851046638352766 -1.178179803058247 0.0
C C -0.0956040906399871 -0.8296059435826857 -1.229925057523418 0.0
H H -0.0927840906399871 -0.8446759435826856 -1.2996950575234183 0.0
C C -0.11983003218417806 -0.8799525637770723 -1.2231433048050029 0.0
C C -0.1552386457256715 -0.942150030155981 -1.2317751213294625 0.0
C C 0.00904673124154244 -0.734947768299413 -1.2334332098760445 0.0
C C 0.062324559974550525 -0.6877681949305539 -1.1804091997819368 0.0
F F 0.09599851903642119 -0.719880318455509 -1.0980466857067868 0.0
F F 0.021271323434299886 -0.6227165227764654 -1.1178567876336662 0.0
F F 0.094326291868609 -0.6530973855640344 -1.2571759277919548 0.0
N N -0.24812945969849332 -0.8542207003160188 -0.727173033873639 0.0
N N -0.33760172903445707 -0.9813335506670077 -0.941747101362451 0.0
O O -0.1649797233018585 -0.9783460392170541 -0.984925964247358 0.0
O O -0.18696373582867742 -0.8671912237094433 -0.9159746324828562 0.0
O O -0.21293714490513868 -0.9233995946941742 -1.2230424020476525 0.0
O O -0.1434466773532959 -0.9849078804009446 -1.258884741987518 0.0
Zn Zn -0.21691909617610877 -0.9380902926064468 -0.8177837441944044 0.0
C C 0.24739715911719473 -0.8895856729349695 0.11321255896216915 0.0
H H 0.2462771591171947 -0.9401556729349695 0.09828255896216916 0.0
C C 0.24387023581467598 -0.8603652586505133 0.01136761229547309 0.0
H H 0.24515023581467602 -0.8790352586505134 -0.05717238770452689 0.0
C C 0.2627861158823506 -0.798797051649317 0.06310779558917741 0.0
C C 0.2527508294824267 -0.7656289981557938 0.1515979038461886 0.0
H H 0.2553208294824267 -0.7151989981557937 0.16835790384618857 0.0
C C 0.23104040742500798 -0.8048447045966757 0.23246457823913388 0.0
H H 0.23182040742500792 -0.7877247045966755 0.30223457823913386 0.0
C C 0.3495958123387827 -0.9260737010216592 0.4532952723276058 0.0
H H 0.3231758123387827 -0.8934437010216593 0.48746527232760584 0.0
C C 0.401458948578924 -0.9564340951792931 0.516924952841812 0.0
H H 0.42033894857892395 -0.9295040951792931 0.5774849528418119 0.0
C C 0.46713089446706607 -1.0014759616091344 0.48169386602519626 0.0
C C 0.4239675144225274 -1.0442946705234155 0.37698299206297514 0.0
H H 0.4497375144225273 -1.0764646705234153 0.34104299206297517 0.0
C C 0.3698564696395126 -1.0081505869628795 0.33920978327471474 0.0
H H 0.34963646963951256 -1.0345205869628797 0.27876978327471463 0.0
C C 0.15973020764023405 -0.9072853945797621 0.49382063193130094 0.0
C C 0.10703240726900473 -0.8404128262604451 0.5497849801243625 0.0
C C 0.0786062449622336 -0.805136016497736 0.5010836230493652 0.0
H H 0.07898624496223358 -0.7912160164977361 0.4300536230493651 0.0
C C 0.04035455591509714 -0.7563318342214312 0.571235089604374 0.0
H H 0.014734555915097144 -0.7160118342214312 0.540395089604374 0.0
C C 0.026780119302933354 -0.771038745406784 0.6888160578366346 0.0
C C 0.07661491695380938 -0.841018131608286 0.7114945199432591 0.0
H H 0.0737949169538094 -0.8560881316082859 0.7812645199432593 0.0
C C 0.10433636619518602 -0.8709559665095937 0.6708213923049104 0.0
C C 0.1689081695059326 -0.9339117191422849 0.7230567262067089 0.0
C C 0.011001989422735458 -0.7269629824809561 0.7558741888914532 0.0
C C -0.04329354058946929 -0.6718711217288295 0.6865025256270045 0.0
F F -0.08359055075588578 -0.7390766352662917 0.618606095470888 0.0
F F -0.030271676776646213 -0.6283243207809854 0.6516623939270697 0.0
F F -0.10745980406569806 -0.6589921879533301 0.7349035872403177 0.0
N N 0.2628045837112619 -0.8874858625586465 0.24318091848773626 0.0
N N 0.32272901674117377 -0.9911312484183143 0.3778076164020247 0.0
O O 0.17910192596134628 -0.9627630183491948 0.49400940812693334 0.0
O O 0.173620421243931 -0.8526552251791906 0.4013704791295608 0.0
O O 0.2199377397102578 -0.9410469142962107 0.6941739295189666 0.0
O O 0.1423222572012341 -0.9941611003770496 0.762450031578619 0.0
Zn Zn 0.22282622956626705 -0.9442346296068882 0.3306482820316163 0.0
C C 0.2755938419268782 -0.38807337972483713 -0.6186649601685513 0.0
H H 0.27671384192687815 -0.4386433797248371 -0.6037349601685513 0.0
C C 0.2452022928967879 -0.3477813048329604 -0.5279258476925567 0.0
H H 0.24392229289678796 -0.3664513048329604 -0.45938584769255664 0.0
C C 0.2561545496528995 -0.2887947711281807 -0.5484724934237554 0.0
C C 0.2494651537482622 -0.263489806361802 -0.6452407323268706 0.0
H H 0.24689515374826215 -0.21305980636180205 -0.6620007323268706 0.0
C C 0.26342859614623476 -0.29618408589072526 -0.7342528039182706 0.0
H H 0.2626485961462348 -0.2790640858907253 -0.8040228039182706 0.0
C C 0.14129302980559497 -0.4245158303981777 -0.9918655367008674 0.0
H H 0.16771302980559497 -0.3918858303981777 -1.0260355367008673 0.0
C C 0.09232866409816348 -0.44071750344208155 -0.9886838024974347 0.0
H H 0.07344866409816349 -0.4137875034420815 -1.0492438024974347 0.0
C C 0.03701929341342987 -0.5169549800054413 -0.9658300870370526 0.0
C C 0.0882478078212688 -0.5343806911370401 -0.8540138670950503 0.0
H H 0.062477807821268806 -0.5665506911370398 -0.8180738670950503 0.0
C C 0.13944943387886088 -0.5440455415296062 -0.8640037857343328 0.0
H H 0.1596694338788609 -0.5704155415296062 -0.8035637857343327 0.0
C C 0.3447711855789978 -0.40037209432616416 -0.9723303464512345 0.0
C C 0.3685911306367077 -0.3549579326020497 -1.1078766411612362 0.0
C C 0.4112103605942265 -0.30312458345382554 -1.0155717396943134 0.0
H H 0.4108303605942265 -0.2892045834538256 -0.9445417396943134 0.0
C C 0.4514887858973068 -0.2698741009141798 -1.0522166811665203 0.0
H H 0.47710878589730676 -0.22955410091417977 -1.0213766811665206 0.0
C C 0.4683065437786738 -0.27232554953519833 -1.1495401145623447 0.0
C C 0.4267717096241485 -0.32877062614031205 -1.2142083022902264 0.0
H H 0.4295917096241484 -0.343840626140312 -1.2839783022902267 0.0
C C 0.36683662171443887 -0.3641855227179514 -1.1663798733901112 0.0
C C 0.3160169888646596 -0.421354884136812 -1.210964400652944 0.0
C C 0.5076115093890043 -0.22107984696316352 -1.2609042692593422 0.0
C C 0.575959264169478 -0.20343933030237651 -1.1726680160514547 0.0
F F 0.5943063748270024 -0.2257721517458296 -1.0931313144411425 0.0
F F 0.5230787838757944 -0.11251036917035985 -1.1596554787880173 0.0
F F 0.6029522238726615 -0.14238085226878458 -1.2397953104678487 0.0
N N 0.26195604727841665 -0.37894252341381396 -0.6903790189898241 0.0
N N 0.1726465773711481 -0.4740473975858851 -0.9158283719856117 0.0
O O 0.331584482489516 -0.4745123868183126 -1.0212356796155302 0.0
O O 0.3069227599090061 -0.36003589697030647 -0.9279749929015484 0.0
O O 0.2548930718056922 -0.4346341698489544 -1.2471124111427188 0.0
O O 0.36404865770421097 -0.48289832848435266 -1.264616344014857 0.0
Zn Zn 0.27141940603125986 -0.4526820081153053 -0.806896371205421 0.0
C C 0.7396075103549405 -0.3883990460223713 0.1085434821045159 0.0
H H 0.7384875103549404 -0.43896904602237125 0.09361348210451591 0.0
C C 0.7359917635691904 -0.34456740199090613 0.007478152013789784 0.0
H H 0.7372717635691903 -0.3632374019909062 -0.061061847986210206 0.0
C C 0.7707895433118834 -0.29249895964324535 0.061399682067969565 0.0
C C 0.7405085984334138 -0.2595821502869471 0.18153263270254355 0.0
H H 0.7430785984334138 -0.20915215028694714 0.19829263270254352 0.0
C C 0.7236995145283261 -0.3001382350140884 0.22327691126104648 0.0
H H 0.7244795145283262 -0.28301823501408835 0.2930469112610465 0.0
C C 0.8450084817878359 -0.4239783462874153 0.44864096362457806 0.0
H H 0.8185884817878358 -0.3913483462874153 0.4828109636245781 0.0
C C 0.9269028445848466 -0.4567559549452726 0.49410184645855654 0.0
H H 0.9457828445848465 -0.4298259549452726 0.5546618464585565 0.0
C C 0.9713791146861599 -0.5009431848038033 0.4741265810036212 0.0
C C 0.9275947311974805 -0.5278569235213679 0.38079896986097295 0.0
H H 0.9533647311974806 -0.5600269235213677 0.344858969860973 0.0
C C 0.8730039673843978 -0.5260992883413479 0.3533199519204023 0.0
H H 0.8527839673843979 -0.5524692883413479 0.2928799519204022 0.0
C C 0.6840184431479124 -0.3995312820664546 0.49526097273525577 0.0
C C 0.6410093623856046 -0.3419648063653185 0.5419917068557357 0.0
C C 0.6006709013678769 -0.2756442882443344 0.5097766876555523 0.0
H H 0.6010509013678768 -0.26172428824433447 0.43874668765555225 0.0
C C 0.5362028909395232 -0.2565732589326843 0.5707820717865787 0.0
H H 0.5105828909395232 -0.21625325893268424 0.5399420717865786 0.0
C C 0.5270325182996696 -0.2821326112829662 0.6609120781320975 0.0
C C 0.5681008374477272 -0.3646947583309914 0.7143934307334299 0.0
H H 0.5652808374477274 -0.37976475833099127 0.7841634307334301 0.0
C C 0.6286073407328008 -0.38829607689264284 0.660586410105524 0.0
C C 0.673133299944287 -0.4367612754132943 0.7476821993930998 0.0
C C 0.49709964590815703 -0.2304080157642184 0.7249179914769511 0.0
C C 0.44404375003150875 -0.17633134514996435 0.6811962847276956 0.0
F F 0.40952037187207047 -0.2145964384574683 0.5677919352848547 0.0
F F 0.49064257529622185 -0.14354664949768348 0.6590959104077125 0.0
F F 0.41942839545365523 -0.12470939044349526 0.7398941305653028 0.0
N N 0.7300252342992616 -0.3743757779441777 0.21550298490824496 0.0
N N 0.8401138695992869 -0.48146588618008335 0.40670815147099204 0.0
O O 0.6808125986537311 -0.47541674255167965 0.5175211536911832 0.0
O O 0.6878272186751495 -0.3706835312427855 0.42924764833698054 0.0
O O 0.7185830688463445 -0.4380943480710792 0.7235939346973759 0.0
O O 0.6470486885483391 -0.49498380180097706 0.7542041287296597 0.0
Zn Zn 0.7177597768215036 -0.45063200492567274 0.3474678423019 0.0
