_cell_length_a 19.5206
_cell_length_b 17.9856
_cell_length_c 12.6054
_cell_angle_alpha 90.0
_cell_angle_beta 99.0355
_cell_angle_gamma 90.0
_symmetry_space_group_name_H-M         'P 1'
_symmetry_Int_Tables_number            1
loop_
_symmetry_equiv_pos_as_xyz
   'x, y, z'
                         
loop_
_atom_site_label
_atom_site_type_symbol
_atom_site_fract_x 
_atom_site_fract_y
_atom_site_fract_z
_atom_site_charge
C C 0.22423423755648986 0.9020043880401873 0.6163182894155866 0.0
H H 0.22311423755648982 0.9525743880401872 0.6013882894155866 0.0
C C 0.24337601734023556 0.8540221245235258 0.5324689643157682 0.0
H H 0.2446560173402356 0.8726921245235258 0.4639289643157682 0.0
C C 0.23648337811577735 0.7843861454691207 0.5313469401307713 0.0
C C 0.24977076591805303 0.7562509609623578 0.6518659794864349 0.0
H H 0.25234076591805304 0.7058209609623578 0.6686259794864349 0.0
C C 0.21314951697789514 0.7911236314492819 0.6997513928851203 0.0
H H 0.2139295169778951 0.7740036314492819 0.7695213928851203 0.0
C C 0.3447815961685478 0.9438638320274808 0.9636644129221478 0.0
H H 0.3183615961685478 0.9112338320274809 0.9978344129221478 0.0
C C 0.41055086577424527 0.9240170652937472 1.0284865333010085 0.0
H H 0.4294308657742452 0.897087065293747 1.0890465333010082 0.0
C C 0.4595112408648879 0.9983235241637037 0.9829222979912661 0.0
C C 0.43189652386410377 1.0229933916379736 0.910914400822686 0.0
H H 0.45766652386410367 1.0551633916379735 0.874974400822686 0.0
C C 0.3528140004193864 1.0059235295857447 0.8558394548686196 0.0
H H 0.33259400041938636 1.0322935295857447 0.7953994548686195 0.0
C C 0.15311159537416558 0.9060584489129195 0.9755640605829252 0.0
C C 0.12725161085555803 0.8527551715347524 1.0407998565783627 0.0
C C 0.0938085668506611 0.7915289440069082 1.029271403114398 0.0
H H 0.09418856685066108 0.7776089440069082 0.9582414031143979 0.0
C C 0.042980423260377765 0.7781838664872112 1.0725230367089484 0.0
H H 0.01736042326037776 0.737863866487211 1.0416830367089487 0.0
C C 0.0414950902356028 0.7745366384171049 1.1846027259929506 0.0
C C 0.08395584497983248 0.8485002228249776 1.2168681655231621 0.0
H H 0.0811358449798325 0.8635702228249775 1.2866381655231625 0.0
C C 0.1443908389140524 0.8767721667655861 1.1868669603621946 0.0
C C 0.18737796078355412 0.9246486413854208 1.2256621374792023 0.0
C C -0.02049278671265736 0.7386684842974842 1.2117577156011308 0.0
C C -0.04714412536771894 0.688767333535763 1.1783952790689565 0.0
F F -0.09377922800340423 0.71110744539608 1.1131370212253238 0.0
F F -0.023405380270902068 0.6367767906962432 1.1282188892398 0.0
F F -0.10314017940614179 0.6718473468875973 1.2267466217600886 0.0
N N 0.21140584512665056 0.8908475098055636 0.7093974274972737 0.0
N N 0.3245892070965282 0.9666869585003142 0.9185813460516273 0.0
O O 0.15439082242316765 0.9665341531892572 0.9897161461784353 0.0
O O 0.17787243494363475 0.8790757155150025 0.901992932675177 0.0
O O 0.2187277437755346 0.9323964046296989 1.2097869991334684 0.0
O O 0.14910533872386603 0.9953879266401439 1.2837914583782815 0.0
Zn Zn 0.22685041221505892 0.9553929947055122 0.8175567305774739 0.0
C C -0.23596793962793425 0.8986503567328147 -0.108580183710812 0.0
H H -0.23484793962793424 0.9492203567328146 -0.09365018371081202 0.0
C C -0.23912829210980818 0.8523887324743091 -0.030667810516061586 0.0
H H -0.24040829210980819 0.8710587324743092 0.0378721894839384 0.0
C C -0.23962514959677922 0.7611981934537503 -0.035035619916994616 0.0
C C -0.2474936405033641 0.7598618552328804 -0.1576490704704561 0.0
H H -0.25006364050336405 0.7094318552328804 -0.1744090704704561 0.0
C C -0.22212021090633222 0.7977685016202519 -0.21645542858349076 0.0
H H -0.2229002109063322 0.7806485016202519 -0.2862254285834907 0.0
C C -0.3595996678940017 0.9258250157544285 -0.48693981671568387 0.0
H H -0.3331796678940018 0.8931950157544287 -0.5211098167156839 0.0
C C -0.4295952522154439 0.9556972279998616 -0.5367030019740638 0.0
H H -0.4484752522154439 0.9287672279998616 -0.5972630019740638 0.0
C C -0.45935296189228036 0.9744725634570868 -0.4519899343253138 0.0
C C -0.4728524167997769 1.0455977817576436 -0.41665090207999605 0.0
H H -0.49862241679977676 1.0777677817576434 -0.38071090207999614 0.0
C C -0.36866750155060557 1.0227801229738058 -0.3633731562733448 0.0
H H -0.34844750155060555 1.0491501229738058 -0.3029331562733448 0.0
C C -0.16290280852641 0.8971627803656372 -0.4665955485260005 0.0
C C -0.13107107621762962 0.8783483531794397 -0.5754259309010997 0.0
C C -0.08817051237490726 0.7882390743792906 -0.512333309225992 0.0
H H -0.08855051237490726 0.7743190743792907 -0.4413033092259919 0.0
C C -0.041609955628500665 0.7464569446729121 -0.5572789550300724 0.0
H H -0.01598995562850067 0.7061369446729121 -0.5264389550300724 0.0
C C -0.053858628091230924 0.7806611131668021 -0.6975102226873525 0.0
C C -0.06921929494915229 0.8473728241745366 -0.7138925261302695 0.0
H H -0.0663992949491523 0.8624428241745365 -0.7836625261302697 0.0
C C -0.16112009102296118 0.893299823018119 -0.6561156907146579 0.0
C C -0.15121082779361297 0.9260402859416936 -0.7156589748393886 0.0
C C -0.013658678266746306 0.7218440109140827 -0.7169713688677032 0.0
C C 0.056104165410269316 0.7080022646260036 -0.6656900781478038 0.0
F F 0.07299624194406124 0.7453579899460095 -0.6330464976671097 0.0
F F 0.020305863832670332 0.6319348950399448 -0.6455705279498144 0.0
F F 0.08770811107942952 0.6485563111287016 -0.7478792780103221 0.0
N N -0.2282762899382868 0.8668533842820556 -0.19783296246822474 0.0
N N -0.33081790402137373 0.9836228856741521 -0.39923157192034064 0.0
O O -0.181822308597438 0.9610910723960961 -0.5142977044505679 0.0
O O -0.17108797511988796 0.8648690469721653 -0.40593583535347344 0.0
O O -0.203562691435557 0.9447602684989946 -0.6995753147198397 0.0
O O -0.1439016760158738 0.9963452055158993 -0.7686873491678536 0.0
Zn Zn -0.22185194364585067 0.9435866616680919 -0.3314296537509548 0.0
C C 0.7479312482297061 1.3916695911921177 0.6073546042909876 0.0
H H 0.746811248229706 1.4422395911921178 0.5924246042909876 0.0
C C 0.7553425541760889 1.328522385699839 0.5144628347926282 0.0
H H 0.7566225541760888 1.3471923856998387 0.44592283479262823 0.0
C C 0.7598552178973709 1.2524436461083832 0.5496693586268021 0.0
C C 0.757526439863749 1.2653020558203816 0.6535492116959878 0.0
H H 0.760096439863749 1.2148720558203818 0.6703092116959878 0.0
C C 0.7282129698278431 1.3111620367233574 0.7279860530454472 0.0
H H 0.728992969827843 1.2940420367233574 0.7977560530454472 0.0
C C 0.865182103413766 1.4389845447287877 1.0035438565594317 0.0
H H 0.8387621034137659 1.4063545447287877 1.0377138565594317 0.0
C C 0.9137287543198266 1.4313576535080408 1.016456558853744 0.0
H H 0.9326087543198266 1.404427653508041 1.077016558853744 0.0
C C 0.9623888494963712 1.5034576583408323 0.9891657638582477 0.0
C C 0.9417770856984532 1.521564569723886 0.9165705724313296 0.0
H H 0.9675470856984534 1.553734569723886 0.8806305724313295 0.0
C C 0.8559537189427051 1.5156686003767934 0.8731873021947336 0.0
H H 0.8357337189427051 1.5420386003767932 0.8127473021947336 0.0
C C 0.6763078842320093 1.3977315058433346 0.9995725428606723 0.0
C C 0.646755213030913 1.3525723069119406 1.0430612001953772 0.0
C C 0.5865495290659158 1.2843383363211025 1.020884848668428 0.0
H H 0.5869295290659158 1.2704183363211028 0.9498548486684281 0.0
C C 0.5445647066683446 1.2582977563072058 1.0935574735131133 0.0
H H 0.5189447066683447 1.2179777563072058 1.0627174735131135 0.0
C C 0.5552950923894965 1.2867089545890065 1.1968505770550926 0.0
C C 0.5874649334555395 1.3457775233649623 1.2469478547695856 0.0
H H 0.5846449334555396 1.3608475233649622 1.316717854769586 0.0
C C 0.5930781019019092 1.4083341713482391 1.173437672662538 0.0
C C 0.6716840292421781 1.4424971386138286 1.2252484750045607 0.0
C C 0.5127153530137585 1.2384160328966904 1.2732100651099587 0.0
C C 0.4436274955295586 1.178996047723795 1.1681633288410562 0.0
F F 0.43282730409361403 1.1748358880946517 1.1399791904417362 0.0
F F 0.48051899755842387 1.1293751119625066 1.1451664014138756 0.0
F F 0.38678983342248247 1.1647278582100162 1.2490266697274937 0.0
N N 0.7411050820365153 1.3919728623412189 0.6936027804443478 0.0
N N 0.8054642794406878 1.4759998006526946 0.8936321632960904 0.0
O O 0.6717023137260618 1.4549736716253776 0.9829018697837762 0.0
O O 0.7139664008837827 1.3638315293356404 0.9274246169826796 0.0
O O 0.7288174239746267 1.4501387330836295 1.2448441063167095 0.0
O O 0.6538745699303361 1.487205103021434 1.2288431628034822 0.0
Zn Zn 0.7095387546460497 1.4536295727396495 0.8219892624088545 0.0
C C 0.24989157433366105 1.3852755731365658 -0.11482755214773165 0.0
H H 0.251011574333661 1.4358455731365658 -0.09989755214773165 0.0
C C 0.2537461078220627 1.358845975984544 -0.007092060348741105 0.0
H H 0.2524661078220627 1.377515975984544 0.06144793965125887 0.0
C C 0.26766392666596217 1.2599479303146928 -0.01603775495780195 0.0
C C 0.24685736134154598 1.2614177845250485 -0.14084060948906915 0.0
H H 0.24428736134154597 1.2109877845250485 -0.15760060948906915 0.0
C C 0.28406754413147256 1.322586774803342 -0.21918010038898644 0.0
H H 0.28328754413147256 1.3054667748033417 -0.2889501003889864 0.0
C C 0.16148406629648135 1.4372084443979658 -0.48134383120548124 0.0
H H 0.18790406629648135 1.4045784443979656 -0.5155138312054813 0.0
C C 0.0807076889328773 1.443850084604298 -0.5319380239110574 0.0
H H 0.0618276889328773 1.4169200846042982 -0.5924980239110573 0.0
C C 0.03324105254875743 1.4967903473914148 -0.4916645499439848 0.0
C C 0.07500636836821514 1.5359848513489194 -0.40596379567089536 0.0
H H 0.04923636836821513 1.5681548513489192 -0.37002379567089544 0.0
C C 0.14189130272702113 1.5023249820666429 -0.35392280316316566 0.0
H H 0.16211130272702112 1.528694982066643 -0.2934828031631656 0.0
C C 0.3453396963459898 1.3942303592297054 -0.48195326190144516 0.0
C C 0.3759608795199264 1.3483678632379714 -0.5553295570560983 0.0
C C 0.42846522363146944 1.2826587703449621 -0.4940050018717288 0.0
H H 0.42808522363146945 1.2687387703449622 -0.4229750018717287 0.0
C C 0.43670703206922346 1.255770267603192 -0.6011206991464954 0.0
H H 0.46232703206922343 1.2154502676031922 -0.5702806991464954 0.0
C C 0.47055999965193324 1.267499524602608 -0.6781459752915576 0.0
C C 0.42489346700294967 1.339558992096372 -0.7095022959098755 0.0
H H 0.4277134670029495 1.3546289920963719 -0.7792722959098756 0.0
C C 0.36602911775913444 1.384333112350021 -0.6508566014890685 0.0
C C 0.3347778264026836 1.4348872439779077 -0.7092890168826385 0.0
C C 0.5218387865363326 1.2392635301395358 -0.7091110189875852 0.0
C C 0.5514293533216347 1.1783821648708372 -0.6742794739452793 0.0
F F 0.5940752344370943 1.2282972413556483 -0.6042800919122093 0.0
F F 0.5200610331047897 1.1296988088150877 -0.6252440216161791 0.0
F F 0.6070772019076007 1.1561888002019862 -0.7362492693482976 0.0
N N 0.2672059844365094 1.381506222958707 -0.22172846479254107 0.0
N N 0.16272564217658964 1.4611832799766302 -0.39969104162194224 0.0
O O 0.3267789882571006 1.4727136062190875 -0.4942645383355634 0.0
O O 0.31884803672528805 1.380800579275122 -0.3896153353341114 0.0
O O 0.2751863461948734 1.4361235545851012 -0.7240978849225609 0.0
O O 0.35760292205125876 1.4821033393568424 -0.774790994316093 0.0
Zn Zn 0.2725841862687769 1.464676050198882 -0.33435171859968177 0.0
C C -0.20721495661071948 -0.9003900148766916 -0.5777188273281058 0.0
H H -0.20609495661071944 -0.9509600148766916 -0.5627888273281056 0.0
C C -0.2368277244518548 -0.8534536746163212 -0.5174489621443904 0.0
H H -0.23810772445185482 -0.8721236746163212 -0.44890896214439036 0.0
C C -0.25909806733984025 -0.7869412271684271 -0.5574613003136006 0.0
C C -0.24446773141593034 -0.7708448389013437 -0.6600105565720744 0.0
H H -0.24703773141593038 -0.7204148389013437 -0.6767705565720744 0.0
C C -0.2634059273661732 -0.796662760444614 -0.7265746624827858 0.0
H H -0.26418592736617313 -0.779542760444614 -0.7963446624827858 0.0
C C -0.3645355292747014 -0.9266412125290919 -0.9917950644677568 0.0
H H -0.3381155292747014 -0.8940112125290921 -1.0259650644677567 0.0
C C -0.40922311791789007 -0.9547308175104798 -1.0297475068935 0.0
H H -0.42810311791789 -0.9278008175104798 -1.0903075068934998 0.0
C C -0.47013180631781754 -0.9893941701462491 -1.0013885363008752 0.0
C C -0.43117962111162894 -1.040700029019132 -0.9010543171386126 0.0
H H -0.45694962111162885 -1.0728700290191318 -0.8651143171386125 0.0
C C -0.3647961449827871 -1.0326803667715503 -0.8160303498141989 0.0
H H -0.3445761449827871 -1.0590503667715505 -0.7555903498141987 0.0
C C -0.17336243032967394 -0.9065522965589393 -1.008012370845251 0.0
C C -0.10450997518439492 -0.8698518949435377 -1.059142917345983 0.0
C C -0.09372811720625948 -0.7837011726179298 -1.0181879390412456 0.0
H H -0.09410811720625947 -0.7697811726179298 -0.9471579390412457 0.0
C C -0.03576740440717953 -0.7595863527454179 -1.0782769129980756 0.0
H H -0.010147404407179542 -0.7192663527454177 -1.0474369129980758 0.0
C C -0.031140113039361084 -0.7934542752264616 -1.1528559357150627 0.0
C C -0.08756911906870658 -0.8338285327698447 -1.188726589269769 0.0
H H -0.08474911906870661 -0.8488985327698446 -1.2584965892697693 0.0
C C -0.1245299930517749 -0.8809449317919381 -1.1759679439645878 0.0
C C -0.17404151560068779 -0.9378063206696836 -1.224196931053002 0.0
C C 0.008315192194503582 -0.728586053444073 -1.262107895376161 0.0
C C 0.04606591941039842 -0.6752443620541034 -1.2066123681557261 0.0
F F 0.0929216251642406 -0.7343131377232268 -1.1030501919173328 0.0
F F 0.008452992282725813 -0.5977949594088996 -1.1694540461915257 0.0
F F 0.1043425191057812 -0.626825931957587 -1.2484752020484595 0.0
N N -0.2514911543987575 -0.8860822564603215 -0.7171086738545722 0.0
N N -0.3293630636235748 -0.9725168733355342 -0.9266683446873512 0.0
O O -0.16741035210414998 -0.9716732222549647 -0.9912986022968231 0.0
O O -0.17586310942771108 -0.8833738778269029 -0.9127209210041927 0.0
O O -0.2206904657592765 -0.944988944433592 -1.2267224892674116 0.0
O O -0.13743019356492403 -0.9916797420178332 -1.2439842383162742 0.0
Zn Zn -0.213503512115597 -0.9506580432285108 -0.8187862490859859 0.0
C C 0.21204016470693837 -0.8962984324839985 0.09724099074472035 0.0
H H 0.2109201647069384 -0.9468684324839984 0.08231099074472036 0.0
C C 0.22103623256828858 -0.8599733011615103 0.021263045891841754 0.0
H H 0.22231623256828859 -0.8786433011615103 -0.04727695410815823 0.0
C C 0.2542767825317662 -0.7800103804120119 0.040522522702188396 0.0
C C 0.22227361752888394 -0.759684614275256 0.09782640875746722 0.0
H H 0.22484361752888393 -0.709254614275256 0.11458640875746721 0.0
C C 0.25833995597194925 -0.8153132933264451 0.2187488425880762 0.0
H H 0.2591199559719492 -0.7981932933264451 0.2885188425880762 0.0
C C 0.3602705647818381 -0.9242530537744724 0.5150487870018053 0.0
H H 0.3338505647818381 -0.8916230537744726 0.5492187870018054 0.0
C C 0.41637803594520784 -0.9539398942954462 0.5075299117385542 0.0
H H 0.4352580359452078 -0.9270098942954462 0.5680899117385542 0.0
C C 0.4652182739266939 -1.0038895681758402 0.4794573267170435 0.0
C C 0.4184633993672245 -1.0405076566200155 0.3842433868747716 0.0
H H 0.4442333993672244 -1.0726776566200154 0.3483033868747717 0.0
C C 0.36163131710555874 -1.0256371374794635 0.35031829774674245 0.0
H H 0.3414113171055587 -1.0520071374794635 0.28987829774674234 0.0
C C 0.15909711147640596 -0.8698873960179225 0.4577080792877712 0.0
C C 0.13209103126488259 -0.8551124905979983 0.5791607454072721 0.0
C C 0.0924826387167038 -0.786387608798215 0.5001063905078758 0.0
H H 0.09286263871670379 -0.7724676087982151 0.42907639050787566 0.0
C C 0.04292894030520074 -0.7601598088514464 0.5860698723476724 0.0
H H 0.017308940305200745 -0.7198398088514464 0.5552298723476724 0.0
C C 0.03697123433940186 -0.7782661173870709 0.6792395623285522 0.0
C C 0.06373838598071117 -0.8489266282499008 0.7022262770914266 0.0
H H 0.060918385980711184 -0.8639966282499008 0.7719962770914267 0.0
C C 0.09428391700684038 -0.8642136140693882 0.6499954596855335 0.0
C C 0.1567756689722694 -0.9231822891470609 0.6992605623685185 0.0
C C -0.010365558636100733 -0.745206634106688 0.7551853880299954 0.0
C C -0.060738900932861786 -0.68056596284324 0.7281205004567712 0.0
F F -0.10362199746054886 -0.7092965847823496 0.6026084283912669 0.0
F F -0.046454846879386794 -0.6155439885010954 0.6140816877468158 0.0
F F -0.10400910966213428 -0.6502774832920558 0.751202086173835 0.0
N N 0.2240399932926931 -0.8726914466634338 0.18920386709957807 0.0
N N 0.3123713800857477 -0.9752512714588228 0.34918647457920443 0.0
O O 0.1739104185652326 -0.9936283283617435 0.47792023614047763 0.0
O O 0.16834618439491708 -0.8595984668067043 0.41517307154642474 0.0
O O 0.2427272273584823 -0.9300197774341363 0.7175433299057227 0.0
O O 0.15391575759708376 -0.9762761398643489 0.754782542680408 0.0
Zn Zn 0.2247490278983942 -0.941694015126466 0.3448303183171275 0.0
C C 0.2497229655353203 -0.3964541983109851 -0.6345794932354327 0.0
H H 0.2508429655353203 -0.447024198310985 -0.6196494932354326 0.0
C C 0.2650305423935681 -0.35437618001862764 -0.5320485488573462 0.0
H H 0.26375054239356815 -0.37304618001862766 -0.46350854885734616 0.0
C C 0.25126604440005423 -0.26346968057824005 -0.5745705678122709 0.0
C C 0.2486139950178397 -0.25773991129831464 -0.6549931816960401 0.0
H H 0.24604399501783966 -0.20730991129831464 -0.6717531816960401 0.0
C C 0.2614213940562948 -0.30370353238817327 -0.7325050160347536 0.0
H H 0.26064139405629483 -0.28658353238817325 -0.8022750160347536 0.0
C C 0.13637746178352053 -0.4252200324144136 -0.9872419951901199 0.0
H H 0.16279746178352056 -0.39259003241441365 -1.02141199519012 0.0
C C 0.08901164554211798 -0.43263479466068866 -1.0227299060105448 0.0
H H 0.07013164554211795 -0.4057047946606886 -1.0832899060105448 0.0
C C 0.03526993509128088 -0.4899854198266214 -0.9650086789838723 0.0
C C 0.07459764595561198 -0.5432508258788868 -0.8637546928238025 0.0
H H 0.04882764595561198 -0.5754208258788867 -0.8278146928238024 0.0
C C 0.14463204970353521 -0.5298430432766884 -0.8386891897356541 0.0
H H 0.16485204970353526 -0.5562130432766884 -0.7782491897356539 0.0
C C 0.31558187299811563 -0.38053381737381825 -1.0147547522101124 0.0
C C 0.37715580636073637 -0.35270214471992833 -1.078556913442956 0.0
C C 0.4101502703906794 -0.30628591645652475 -1.008573122787728 0.0
H H 0.4097702703906794 -0.2923659164565248 -0.9375431227877279 0.0
C C 0.460275369471083 -0.271729889784667 -1.0771762275309038 0.0
H H 0.48589536947108286 -0.23140988978466698 -1.046336227530904 0.0
C C 0.46908917054283794 -0.27711090223050977 -1.1621945884679863 0.0
C C 0.4281209887330865 -0.3337982173291305 -1.2683056254613536 0.0
H H 0.4309409887330864 -0.3488682173291304 -1.338075625461354 0.0
C C 0.38288897341940903 -0.3775475317645973 -1.1504029820231068 0.0
C C 0.35221389761257305 -0.43557790239839667 -1.203680301087799 0.0
C C 0.5118425966324618 -0.23272958247743566 -1.238973592659662 0.0
C C 0.5423838580760945 -0.17849262224253706 -1.1943387965623324 0.0
F F 0.5935673505019444 -0.2237900811539605 -1.0930552039143686 0.0
F F 0.5294092294931664 -0.10642490987023738 -1.1568041380320944 0.0
F F 0.5891353422522299 -0.1346938271751776 -1.2542102322996629 0.0
N N 0.2655477322711571 -0.36804160882876885 -0.7340276787222585 0.0
N N 0.18219809039999296 -0.45624701003747004 -0.8755329847915875 0.0
O O 0.3129611876183906 -0.4649393542198253 -1.006575585867522 0.0
O O 0.317554571261277 -0.3598589584408583 -0.9152790964630327 0.0
O O 0.2627264322214561 -0.42878706788873844 -1.2360047274350194 0.0
O O 0.33811318343326247 -0.48449612585301605 -1.259570163784661 0.0
Zn Zn 0.278354188556344 -0.46354957868578117 -0.8148585837005177 0.0
C C 0.7467873723884279 -0.3790284153339992 0.09534968904980608 0.0
H H 0.745667372388428 -0.4295984153339992 0.08041968904980608 0.0
C C 0.7520301000534312 -0.3596770200518915 0.022726235729648915 0.0
H H 0.7533101000534312 -0.3783470200518916 -0.04581376427035107 0.0
C C 0.7373500265523218 -0.29673797042620886 0.047887346245014124 0.0
C C 0.7273956781674471 -0.25479544856612624 0.11908477503443053 0.0
H H 0.7299656781674472 -0.20436544856612626 0.13584477503443051 0.0
C C 0.7491845785152413 -0.29624071580251776 0.259765545208512 0.0
H H 0.7499645785152412 -0.27912071580251774 0.329535545208512 0.0
C C 0.8412334531497376 -0.43676861015934193 0.457231340070339 0.0
H H 0.8148134531497375 -0.4041386101593419 0.491401340070339 0.0
C C 0.9342012429434531 -0.45093038625983667 0.49702516467058716 0.0
H H 0.9530812429434531 -0.4240003862598366 0.557585164670587 0.0
C C 0.9682214683463393 -0.5057464085002643 0.475729961799872 0.0
C C 0.9364370695579666 -0.5486917000796293 0.3952987385710906 0.0
H H 0.9622070695579668 -0.580861700079629 0.3593587385710907 0.0
C C 0.8707222776646053 -0.513308453321249 0.3753934163179469 0.0
H H 0.8505022776646051 -0.539678453321249 0.3149534163179469 0.0
C C 0.672562364745752 -0.3982360602590633 0.48078390999583637 0.0
C C 0.6257362608505574 -0.3642638234184995 0.5114116467794744 0.0
C C 0.581888987389365 -0.29664574511509995 0.5024684661610066 0.0
H H 0.5822689873893648 -0.2827257451151 0.43143846616100645 0.0
C C 0.5432284779498001 -0.2621198307311502 0.5479265687391446 0.0
H H 0.5176084779498001 -0.22179983073115025 0.5170865687391445 0.0
C C 0.5339733841098938 -0.24998238741857046 0.6805436985601966 0.0
C C 0.5757882349161558 -0.33770609146692454 0.70521682478106 0.0
H H 0.572968234916156 -0.35277609146692446 0.7749868247810601 0.0
C C 0.6054587961702171 -0.365722208521748 0.6452330141269151 0.0
C C 0.6844395643034695 -0.44101488837244035 0.7132023759280028 0.0
C C 0.4785845492300464 -0.23878287147026467 0.7237744498190013 0.0
C C 0.4546750578213151 -0.18128724572145016 0.6860369875267924 0.0
F F 0.3894600812754681 -0.19791036853735078 0.5926077318037964 0.0
F F 0.4563012940396968 -0.10739171036069588 0.6167972016799178 0.0
F F 0.39003967695146047 -0.13526120305065115 0.7465723758602322 0.0
N N 0.7467468252165574 -0.3925150326188092 0.20110824843637454 0.0
N N 0.8139049695993464 -0.47777345958800616 0.36842688241339183 0.0
O O 0.668240655298233 -0.48822316208108446 0.5123831283299505 0.0
O O 0.6811188920132518 -0.35499858418859986 0.4050414990754217 0.0
O O 0.7289257443382369 -0.44427546032508525 0.7262021772811134 0.0
O O 0.6420657830326233 -0.4776171904477128 0.7926891704792286 0.0
Zn Zn 0.7240739702750021 -0.4440956438376936 0.32457276518874745 0.0
