_cell_length_a 19.5206
_cell_length_b 17.9856
_cell_length_c 12.6054
_cell_angle_alpha 90.0
_cell_angle_beta 99.0355
_cell_angle_gamma 90.0
_symmetry_space_group_name_H-M         'P 1'
_symmetry_Int_Tables_number            1
loop_
_symmetry_equiv_pos_as_xyz
   'x, y, z'
                         
loop_
_atom_site_label
_atom_site_type_symbol
_atom_site_fract_x 
_atom_site_fract_y
_atom_site_fract_z
_atom_site_charge
C C 0.2421031686074308 0.9049789117538164 0.6047478605498032 0.0
H H 0.24098316860743077 0.9555489117538163 0.5898178605498032 0.0
C C 0.2541610382305895 0.857459685092142 0.540447576079821 0.0
H H 0.25544103823058945 0.8761296850921421 0.4719075760798209 0.0
C C 0.22676425790438504 0.7526458261384559 0.5555793926961438 0.0
C C 0.25216639204983443 0.7457394110057426 0.6531836211806904 0.0
H H 0.2547363920498344 0.6953094110057426 0.6699436211806904 0.0
C C 0.25972905088609405 0.8234679584759717 0.7408503430948109 0.0
H H 0.260509050886094 0.8063479584759716 0.8106203430948109 0.0
C C 0.3293902724042734 0.9646953371622495 0.9629188951557365 0.0
H H 0.3029702724042734 0.9320653371622497 0.9970888951557364 0.0
C C 0.4065221496758466 0.9361489823813117 1.0154221245175428 0.0
H H 0.42540214967584655 0.9092189823813117 1.0759821245175427 0.0
C C 0.47164667142199707 1.0016703373449836 0.9779533361656538 0.0
C C 0.423047157710899 1.0206863035698202 0.8854170552622365 0.0
H H 0.4488171577108989 1.05285630356982 0.8494770552622364 0.0
C C 0.37042345506880564 1.0286836658756366 0.8309210141905639 0.0
H H 0.35020345506880557 1.0550536658756366 0.7704810141905637 0.0
C C 0.17109991821631274 0.8851717311384204 1.0007914919020153 0.0
C C 0.1327730304429787 0.8498026086072393 1.0731333483360015 0.0
C C 0.09430082905288384 0.7951955034456386 1.0118729655808036 0.0
H H 0.09468082905288382 0.7812755034456386 0.9408429655808035 0.0
C C 0.037231635670438815 0.7638074536635565 1.0949030558795707 0.0
H H 0.011611635670438828 0.7234874536635565 1.064063055879571 0.0
C C 0.03353051954125825 0.7674379101448621 1.1821821977942812 0.0
C C 0.06114900288753769 0.845870715189017 1.2100038976869838 0.0
H H 0.058329002887537715 0.8609407151890169 1.2797738976869841 0.0
C C 0.13045773339354777 0.8704898721088078 1.1672099446226338 0.0
C C 0.1562817990862019 0.933002373412687 1.2073398369926593 0.0
C C -0.013530966968142655 0.7069719937311005 1.249919160520831 0.0
C C -0.06044111753174428 0.6724096503768037 1.1518726020125816 0.0
F F -0.0991128312110223 0.7140527927225571 1.0916493977355508 0.0
F F -0.03323155141300144 0.6399846800589162 1.111487674968073 0.0
F F -0.09637171561501019 0.6487728832917398 1.2708397043779867 0.0
N N 0.24017184005182063 0.8758986884395076 0.7116057275464619 0.0
N N 0.33474491953398267 0.9555015255406728 0.9110430296315613 0.0
O O 0.18205642792252455 0.9800893563857945 1.0184755872701299 0.0
O O 0.19255721607333615 0.8607084734671709 0.9089377150200096 0.0
O O 0.22745771094194392 0.9249783725589916 1.215210575991266 0.0
O O 0.1240326013467519 0.9966276345886461 1.235455317584868 0.0
Zn Zn 0.21366841886202392 0.9601088884716095 0.8272746235729855 0.0
C C -0.2371304710737829 0.9001773780755324 -0.09061226332554949 0.0
H H -0.2360104710737829 0.9507473780755324 -0.07568226332554949 0.0
C C -0.24965471283810997 0.8342530937771326 -0.026862017314231976 0.0
H H -0.25093471283811003 0.8529230937771327 0.04167798268576801 0.0
C C -0.23150854734696896 0.7816529699154497 -0.014529260522858476 0.0
C C -0.23154762685617797 0.7457144366028161 -0.11991028153443697 0.0
H H -0.23411762685617793 0.6952844366028161 -0.13667028153443697 0.0
C C -0.25298195362132037 0.8151801576573149 -0.22584691729831466 0.0
H H -0.2537619536213203 0.7980601576573149 -0.29561691729831463 0.0
C C -0.3492935081122893 0.9450675415956438 -0.5087756149883552 0.0
H H -0.3228735081122893 0.9124375415956439 -0.5429456149883553 0.0
C C -0.4424793231002969 0.9327694380375251 -0.5343375798923551 0.0
H H -0.46135932310029687 0.905839438037525 -0.594897579892355 0.0
C C -0.47563607625265164 0.9984573011020049 -0.505105539195175 0.0
C C -0.41795537804670063 1.0182348900605984 -0.39258265039095647 0.0
H H -0.4437253780467006 1.0504048900605982 -0.35664265039095655 0.0
C C -0.34429907524513576 1.0334595760320051 -0.31367163903362016 0.0
H H -0.3240790752451357 1.0598295760320053 -0.2532316390336201 0.0
C C -0.15938666258747194 0.9071365495132301 -0.466722194815004 0.0
C C -0.11659139419467568 0.8683497332082565 -0.5541256266684812 0.0
C C -0.08116698618100547 0.8142819903488684 -0.5207172556294324 0.0
H H -0.08154698618100545 0.8003619903488685 -0.4496872556294323 0.0
C C -0.04789153523722953 0.7487114146155034 -0.5652866027502299 0.0
H H -0.022271535237229526 0.7083914146155034 -0.5344466027502299 0.0
C C -0.025286897460103784 0.780053910196203 -0.6502684881014972 0.0
C C -0.08471944856857827 0.8371444301856565 -0.7512435024094603 0.0
H H -0.0818994485685783 0.8522144301856563 -0.8210135024094605 0.0
C C -0.11865132112256452 0.8780548155418582 -0.6432347734235159 0.0
C C -0.16945963661950988 0.9433187187315074 -0.7062914560106601 0.0
C C 0.0023936691891514195 0.728530359254661 -0.7408543482531945 0.0
C C 0.0562659157021367 0.7084903375603469 -0.6806145943797334 0.0
F F 0.093592662437061 0.7271223366134838 -0.623401709154493 0.0
F F 0.04515213100171492 0.6383451899185855 -0.5984752728752988 0.0
F F 0.08875621646473617 0.6670768034231814 -0.7552913368733087 0.0
N N -0.24239029397968156 0.8741671890974335 -0.2220388551250182 0.0
N N -0.31367439616638554 0.9871645480923652 -0.40285704248033155 0.0
O O -0.16332922341683284 0.958155433022083 -0.5004114931871316 0.0
O O -0.17854405125723952 0.8713561645193509 -0.40893311608246086 0.0
O O -0.22283362051446282 0.9383977241144504 -0.6984605761100333 0.0
O O -0.16426340822707736 1.000867813050418 -0.7876259241058255 0.0
Zn Zn -0.21687562295104848 0.9682413096781112 -0.32725982398955855 0.0
C C 0.7449859696681106 1.4042451534744091 0.6074487161532237 0.0
H H 0.7438659696681105 1.4548151534744092 0.5925187161532237 0.0
C C 0.7218135288639668 1.3536664904498499 0.5187730481681418 0.0
H H 0.7230935288639668 1.3723364904498498 0.4502330481681418 0.0
C C 0.7522938280733664 1.2829196533529885 0.5304633018389225 0.0
C C 0.7612355035629778 1.2830129188070072 0.6505982507935042 0.0
H H 0.7638055035629776 1.2325829188070072 0.6673582507935042 0.0
C C 0.7406163524709761 1.3181674676323905 0.7416869230594496 0.0
H H 0.7413963524709761 1.3010474676323904 0.8114569230594496 0.0
C C 0.8514189187048888 1.4555781289873575 0.9809321941899286 0.0
H H 0.8249989187048887 1.4229481289873576 1.0151021941899285 0.0
C C 0.9269019458290897 1.4266358991104304 1.0215338459170138 0.0
H H 0.9457819458290897 1.3997058991104305 1.0820938459170137 0.0
C C 0.9504625650466645 1.4857394824092223 0.9727517629785422 0.0
C C 0.9453092712863238 1.5094743878363461 0.9007092644251351 0.0
H H 0.9710792712863241 1.5416443878363462 0.864769264425135 0.0
C C 0.8543707903913854 1.530301984161359 0.8438067268578842 0.0
H H 0.8341507903913854 1.5566719841613588 0.7833667268578841 0.0
C C 0.6424946319824737 1.4193506025875866 0.9573880701543831 0.0
C C 0.628515145657585 1.351923971009086 1.0385773850697764 0.0
C C 0.5813142100990949 1.296478429961173 1.0066922584616431 0.0
H H 0.5816942100990948 1.282558429961173 0.9356622584616432 0.0
C C 0.5465894537717431 1.2471298481088098 1.0428618706780255 0.0
H H 0.5209694537717431 1.2068098481088099 1.0120218706780257 0.0
C C 0.537204299210569 1.2821620958683175 1.1761461170877847 0.0
C C 0.5787485433339982 1.3425364518666771 1.2444578759451077 0.0
H H 0.5759285433339982 1.357606451866677 1.314227875945108 0.0
C C 0.6375194699623361 1.3659324438976057 1.1607456600927955 0.0
C C 0.670998668138552 1.419909446487444 1.231704000789947 0.0
C C 0.502397758513132 1.2217078040499043 1.27667927786973 0.0
C C 0.4333818913279884 1.1899814890702791 1.1944579970432108 0.0
F F 0.4123129831659489 1.2226802891526094 1.100193425136111 0.0
F F 0.45819930611870147 1.111077871622064 1.150196726393908 0.0
F F 0.4190156404156928 1.165014488175643 1.2397491962221334 0.0
N N 0.7288695748081144 1.3825712082751473 0.7033023089489602 0.0
N N 0.8210695232875591 1.4566547113219328 0.8918449815217883 0.0
O O 0.6744758223991474 1.476823578047096 1.0285628936107272 0.0
O O 0.7069688752856437 1.3699692120669331 0.9240687002320062 0.0
O O 0.7412100657959843 1.423305285755624 1.2131785957655763 0.0
O O 0.6314486245789546 1.5215256390582292 1.2677759865813458 0.0
Zn Zn 0.7219635253908909 1.4331751707698712 0.8362539150817218 0.0
C C 0.24716014956999213 1.3897376412897673 -0.152207888588785 0.0
H H 0.24828014956999211 1.4403076412897673 -0.13727788858878504 0.0
C C 0.2383586839710538 1.3543288286016217 -0.054925032476859974 0.0
H H 0.23707868397105386 1.3729988286016217 0.013614967523140013 0.0
C C 0.2620216564321646 1.2699989518233805 -0.02393066976524508 0.0
C C 0.24950048265789376 1.2538990611194112 -0.14276467028599865 0.0
H H 0.24693048265789372 1.2034690611194112 -0.15952467028599862 0.0
C C 0.2630682944517938 1.3145924279869299 -0.2365381749044647 0.0
H H 0.26228829445179386 1.2974724279869296 -0.30630817490446466 0.0
C C 0.1436287364372949 1.421172648236776 -0.46108127177184444 0.0
H H 0.17004873643729493 1.3885426482367758 -0.4952512717718445 0.0
C C 0.06542294438620708 1.4491229509033998 -0.5265218747929855 0.0
H H 0.04654294438620707 1.4221929509034001 -0.5870818747929855 0.0
C C 0.033284797247203846 1.487402339088217 -0.48737305254921287 0.0
C C 0.08982062216455049 1.508278669497243 -0.38548843979037434 0.0
H H 0.06405062216455046 1.540448669497243 -0.34954843979037437 0.0
C C 0.13062040037161618 1.504614595339089 -0.3652299480445817 0.0
H H 0.15084040037161617 1.5309845953390888 -0.30478994804458165 0.0
C C 0.3312211972667785 1.3971174761349454 -0.4831802508436233 0.0
C C 0.3915004882622784 1.3643204388229426 -0.5412001598280146 0.0
C C 0.402243897367983 1.2888041232571346 -0.5263902772376523 0.0
H H 0.401863897367983 1.2748841232571348 -0.4553602772376522 0.0
C C 0.4520204922716384 1.259695382721245 -0.5760468073205781 0.0
H H 0.47764049227163846 1.219375382721245 -0.5452068073205781 0.0
C C 0.4619814733347276 1.2852225913092148 -0.6784440624115339 0.0
C C 0.4135067139404964 1.3608112200600515 -0.6915358117757306 0.0
H H 0.4163267139404962 1.3758812200600514 -0.7613058117757309 0.0
C C 0.38722289460873094 1.3815298874242528 -0.6570436633680522 0.0
C C 0.34569003189617103 1.4309761899478408 -0.7139486346238475 0.0
C C 0.4857079668135845 1.242953806944513 -0.7479995522687041 0.0
C C 0.546852274390603 1.185442554664218 -0.6621806470470728 0.0
F F 0.6031979972800866 1.2115799086204824 -0.6206125024197716 0.0
F F 0.5202259138859829 1.11990758763878 -0.618521643955144 0.0
F F 0.5843082117430868 1.1522410101073968 -0.7801261235790953 0.0
N N 0.27843642355170245 1.3832967490235075 -0.2314742416992644 0.0
N N 0.1871442204441796 1.485711526499673 -0.39918157958935435 0.0
O O 0.3430652535413365 1.4710220525561408 -0.49312483315428535 0.0
O O 0.32071189315028914 1.3411771531459629 -0.4046798164206884 0.0
O O 0.27636435619124605 1.4363732959910205 -0.7271073251434184 0.0
O O 0.3721011328443763 1.4832428737139334 -0.7249269297066864 0.0
Zn Zn 0.27324058795273554 1.434523755075098 -0.3051416437845637 0.0
C C -0.2369020167261189 -0.9064126632116591 -0.6084383024575541 0.0
H H -0.23578201672611887 -0.9569826632116591 -0.5935083024575541 0.0
C C -0.2534202742093672 -0.8441874030138095 -0.5497630365389873 0.0
H H -0.25470027420936714 -0.8628574030138096 -0.4812230365389873 0.0
C C -0.24296268411124658 -0.7788412449299876 -0.5269396822227719 0.0
C C -0.24918778372132452 -0.7372817190207236 -0.6567434902528311 0.0
H H -0.2517577837213245 -0.6868517190207236 -0.6735034902528311 0.0
C C -0.25255348367626546 -0.7986986496339686 -0.7159272424634513 0.0
H H -0.25333348367626546 -0.7815786496339686 -0.7856972424634513 0.0
C C -0.3653999804162784 -0.9318928564392387 -0.9926613070151208 0.0
H H -0.3389799804162784 -0.8992628564392389 -1.0268313070151207 0.0
C C -0.42963070622962496 -0.9770175637614241 -1.035603950299436 0.0
H H -0.4485107062296249 -0.950087563761424 -1.0961639502994358 0.0
C C -0.4603158788890483 -1.0059326332857903 -0.9648446056519872 0.0
C C -0.4630718779352305 -1.0138257594164963 -0.9305890293452572 0.0
H H -0.48884187793523043 -1.0459957594164961 -0.8946490293452571 0.0
C C -0.3659410939033909 -0.9934844852015589 -0.8605162060044537 0.0
H H -0.34572109390339084 -1.019854485201559 -0.8000762060044535 0.0
C C -0.15186956961777692 -0.8985613662110363 -0.9865287575921006 0.0
C C -0.1190148172712422 -0.8691017727152895 -1.0654236439983709 0.0
C C -0.08829955851209605 -0.8031376955157926 -1.0162793300459807 0.0
H H -0.08867955851209604 -0.7892176955157926 -0.9452493300459807 0.0
C C -0.015748238985683845 -0.7713255244636512 -1.0464024982609694 0.0
H H 0.00987176101431616 -0.7310055244636511 -1.0155624982609697 0.0
C C -0.027751642207066638 -0.756433438483839 -1.142314615490698 0.0
C C -0.08660409369063758 -0.8406057739720832 -1.2350337313485533 0.0
H H -0.0837840936906376 -0.855675773972083 -1.3048037313485537 0.0
C C -0.13939553133268537 -0.8854583253844102 -1.1657432738177962 0.0
C C -0.18405773962088437 -0.9340361374637243 -1.2199028201901316 0.0
C C 0.009944192345331709 -0.7217801172058327 -1.2495843475220483 0.0
C C 0.04532957570922395 -0.6834038506042818 -1.177004589750772 0.0
F F 0.08889580618470071 -0.7200760941076682 -1.1258617366870285 0.0
F F 0.02475495154675 -0.6328908002140268 -1.1085272632659908 0.0
F F 0.10149014634028718 -0.6427280941846167 -1.2615970261913751 0.0
N N -0.23581698940345344 -0.864944485605831 -0.7329833160308893 0.0
N N -0.3147210795165065 -0.9975384452024438 -0.8810209318663041 0.0
O O -0.14574970221710531 -0.9605694191046669 -0.9615678762199571 0.0
O O -0.1869299568553164 -0.8394259722078712 -0.9499907254377851 0.0
O O -0.24027087903766 -0.9409688581561476 -1.2627928792665435 0.0
O O -0.15236997781901687 -0.9894652058674075 -1.2808367473605178 0.0
Zn Zn -0.2096047158064717 -0.9430173726637551 -0.8327604612254284 0.0
C C 0.23849916467119553 -0.8906375215703481 0.12173480096967891 0.0
H H 0.23737916467119555 -0.941207521570348 0.10680480096967893 0.0
C C 0.2413173842727968 -0.8601489760173047 0.01237475166204454 0.0
H H 0.2425973842727968 -0.8788189760173049 -0.05616524833795545 0.0
C C 0.25867572074901085 -0.7780609217146627 0.007062496068066929 0.0
C C 0.2500317012266355 -0.7506752705247406 0.13268668193381453 0.0
H H 0.25260170122663544 -0.7002452705247405 0.1494466819338145 0.0
C C 0.2178464764109928 -0.8009478109835259 0.2363577174857823 0.0
H H 0.21862647641099275 -0.7838278109835258 0.30612771748578227 0.0
C C 0.359873412514298 -0.9326178885028725 0.4754616048801222 0.0
H H 0.33345341251429805 -0.8999878885028727 0.5096316048801223 0.0
C C 0.42258559330604517 -0.9476569187211487 0.5162532446293888 0.0
H H 0.4414655933060451 -0.9207269187211486 0.5768132446293888 0.0
C C 0.46744175319491665 -0.9825375704715084 0.49013223543697554 0.0
C C 0.41946570220799445 -1.0271863225578413 0.3982772264449006 0.0
H H 0.4452357022079944 -1.059356322557841 0.3623372264449007 0.0
C C 0.3653979166878822 -1.0051616402197212 0.36675544556986855 0.0
H H 0.34517791668788217 -1.0315316402197214 0.30631544556986856 0.0
C C 0.15345274147461446 -0.8963782499322699 0.4564218370279318 0.0
C C 0.1261886584264282 -0.8653611586718216 0.5527352240153959 0.0
C C 0.0948690074895146 -0.7984196332958357 0.5285686640433783 0.0
H H 0.09524900748951458 -0.7844996332958357 0.4575386640433783 0.0
C C 0.050208637243856324 -0.7648289459770696 0.5904318938860542 0.0
H H 0.024588637243856327 -0.7245089459770696 0.5595918938860541 0.0
C C 0.04335715607400119 -0.7733344283992636 0.7012120360911553 0.0
C C 0.07004293504662552 -0.8405229248536754 0.716396051268976 0.0
H H 0.06722293504662553 -0.8555929248536753 0.7861660512689761 0.0
C C 0.1222573421443837 -0.8903204413025119 0.6473701333456835 0.0
C C 0.16797369017620556 -0.9554602529137421 0.6899595216866565 0.0
C C 0.003337300378950101 -0.7393581173799404 0.7324388447403041 0.0
C C -0.0587616167490312 -0.6903317119526933 0.6438220773259756 0.0
F F -0.09299959237656318 -0.7177948072155738 0.5972684564756031 0.0
F F -0.04553552307828827 -0.6011240264717981 0.5981620568534415 0.0
F F -0.095889870395008 -0.6765843248288689 0.7607822161419544 0.0
N N 0.2333994225741502 -0.8644276844122827 0.20827483007315056 0.0
N N 0.3219103095436454 -0.9705825005491195 0.3937914785696669 0.0
O O 0.16747823283629334 -0.9857595925525845 0.4749467173849132 0.0
O O 0.17707234087253204 -0.8802683735729738 0.39430619047881055 0.0
O O 0.22227744941830188 -0.9367916893289047 0.727332917610997 0.0
O O 0.1286083568422148 -0.9919398153000389 0.7888210065202195 0.0
Zn Zn 0.22106064742386547 -0.9642994978807334 0.33983975781208114 0.0
C C 0.25904980979729086 -0.38497504779413627 -0.6096965449079365 0.0
H H 0.2601698097972909 -0.43554504779413616 -0.5947665449079365 0.0
C C 0.25518268010447254 -0.3611560712612061 -0.5355285205261465 0.0
H H 0.2539026801044726 -0.3798260712612061 -0.4669885205261465 0.0
C C 0.25150078442931817 -0.27784011781013757 -0.5538070319196222 0.0
C C 0.2612883047537402 -0.2782313938282673 -0.6301319633828342 0.0
H H 0.2587183047537402 -0.2278013938282673 -0.6468919633828341 0.0
C C 0.23698724612428357 -0.3138052550082807 -0.7378377447014561 0.0
H H 0.2362072461242836 -0.2966852550082807 -0.8076077447014561 0.0
C C 0.15302292539238038 -0.44689900594506854 -0.9730062093963251 0.0
H H 0.1794429253923804 -0.41426900594506866 -1.007176209396325 0.0
C C 0.07781822425401387 -0.4572156005558845 -1.023641850994605 0.0
H H 0.058938224254013856 -0.43028560055588444 -1.084201850994605 0.0
C C 0.02763958697942838 -0.48585720662505505 -0.9837415860760156 0.0
C C 0.06341365442399657 -0.5250927118584942 -0.8637559072110412 0.0
H H 0.037643654423996566 -0.557262711858494 -0.8278159072110411 0.0
C C 0.13910400700208195 -0.5039140926380005 -0.8450137743124343 0.0
H H 0.159324007002082 -0.5302840926380005 -0.7845737743124341 0.0
C C 0.34518861202752454 -0.4092916991040967 -0.9609910017038006 0.0
C C 0.3790546498985871 -0.351171489157174 -1.0337786949409853 0.0
C C 0.4112386750784119 -0.28022174798149235 -1.0311297679333533 0.0
H H 0.4108586750784119 -0.2663017479814924 -0.9600997679333533 0.0
C C 0.4586093084043474 -0.26419792170981793 -1.089507365596037 0.0
H H 0.48422930840434725 -0.22387792170981793 -1.058667365596037 0.0
C C 0.4669444085210254 -0.274291666602968 -1.1640266291436814 0.0
C C 0.4356413538533676 -0.3309947881952453 -1.19612107515664 0.0
H H 0.4384613538533675 -0.3460647881952453 -1.2658910751566403 0.0
C C 0.38557917044402384 -0.3807206523755503 -1.1569276334282863 0.0
C C 0.3365283912214128 -0.4535799377248142 -1.2141551805553927 0.0
C C 0.48326569016227083 -0.2450783217250965 -1.2488822137813707 0.0
C C 0.5564974233352911 -0.17950008315988325 -1.1693348740734109 0.0
F F 0.5847693019127519 -0.20677788698424396 -1.121914911088528 0.0
F F 0.5510851655498192 -0.1248331981528665 -1.0992715371246142 0.0
F F 0.5998455318171384 -0.16033492039566746 -1.2593123533906627 0.0
N N 0.26617172613398343 -0.3695604272704372 -0.7198638016615856 0.0
N N 0.1819571158625729 -0.47132211040664224 -0.8737547500175247 0.0
O O 0.3311033319357884 -0.45659190672698374 -0.9879589556636327 0.0
O O 0.3109011103637231 -0.3696105430331439 -0.9064955577551966 0.0
O O 0.27104961339678446 -0.42112972247750385 -1.2025061331813718 0.0
O O 0.3462347445157751 -0.4782839932821224 -1.2670899866661571 0.0
Zn Zn 0.26913889211661934 -0.45106755037467516 -0.845170963314971 0.0
C C 0.7356510032042953 -0.4006727088082893 0.10483016073483256 0.0
H H 0.7345310032042952 -0.4512427088082893 0.08990016073483256 0.0
C C 0.7621691683394594 -0.3585449116165173 0.023253173006895937 0.0
H H 0.7634491683394594 -0.3772149116165174 -0.04528682699310405 0.0
C C 0.7652674468988703 -0.2570561445354304 0.043179022766785105 0.0
C C 0.7441927978314753 -0.26434892141259864 0.1309520188203615 0.0
H H 0.7467627978314751 -0.21391892141259863 0.14771201882036147 0.0
C C 0.7551668555695402 -0.29953695270244807 0.22773597239531176 0.0
H H 0.7559468555695402 -0.28241695270244804 0.29750597239531174 0.0
C C 0.8410059042870799 -0.44583665071749246 0.4692575191080116 0.0
H H 0.8145859042870798 -0.41320665071749246 0.5034275191080116 0.0
C C 0.9270560461019326 -0.44751975972598823 0.5152582368268978 0.0
H H 0.9459360461019325 -0.4205897597259883 0.5758182368268977 0.0
C C 0.9494220434021463 -0.4890748629410823 0.43965357356273105 0.0
C C 0.9337899986028686 -0.5310103120876737 0.38243375623570963 0.0
H H 0.9595599986028688 -0.5631803120876735 0.3464937562357097 0.0
C C 0.8679249191240195 -0.5351388749916256 0.3397750703655567 0.0
H H 0.8477049191240195 -0.5615088749916256 0.27933507036555666 0.0
C C 0.6529748432100572 -0.40752920448408686 0.4735621422995345 0.0
C C 0.6245830901960411 -0.348915143963064 0.5743549545726558 0.0
C C 0.5730234309925485 -0.2773287704411713 0.4954599309013818 0.0
H H 0.5734034309925484 -0.2634087704411714 0.4244299309013817 0.0
C C 0.5523072719262547 -0.2639796356173425 0.6033145184517449 0.0
H H 0.5266872719262546 -0.22365963561734245 0.5724745184517449 0.0
C C 0.5403374621139465 -0.27045512348163675 0.7032856883652024 0.0
C C 0.5777902276129011 -0.34156283412373534 0.7517747732528112 0.0
H H 0.5749702276129013 -0.35663283412373525 0.8215447732528114 0.0
C C 0.6125628123048117 -0.3993243117676119 0.6339738210388611 0.0
C C 0.6726744880759027 -0.44515540857862174 0.7116119078409501 0.0
C C 0.4798262008240142 -0.22747852367027468 0.7305250513095487 0.0
C C 0.43928780676810597 -0.15799494937875486 0.6891916262747613 0.0
F F 0.4071120665197351 -0.2165464582017239 0.5887411082036206 0.0
F F 0.47680285278278955 -0.13918975871287587 0.6311258996646044 0.0
F F 0.3951557054318858 -0.14528764457579962 0.7284854761825558 0.0
N N 0.7513069059388603 -0.3774172929395629 0.20878492477286836 0.0
N N 0.8125872471982137 -0.46533847530608347 0.38597796468710954 0.0
O O 0.6698111652418932 -0.4611855299349774 0.47251255459106173 0.0
O O 0.7048130386000028 -0.37751348559978687 0.4329217502882937 0.0
O O 0.7529707368030726 -0.4398086102171924 0.7225179749205396 0.0
O O 0.6354453274136446 -0.47591341833683853 0.7577569838593815 0.0
Zn Zn 0.7404626644905227 -0.4574531676406598 0.33741449333611007 0.0
