_cell_length_a 19.5206
_cell_length_b 17.9856
_cell_length_c 12.6054
_cell_angle_alpha 90.0
_cell_angle_beta 99.0355
_cell_angle_gamma 90.0
_symmetry_space_group_name_H-M         'P 1'
_symmetry_Int_Tables_number            1
loop_
_symmetry_equiv_pos_as_xyz
   'x, y, z'
                         
loop_
_atom_site_label
_atom_site_type_symbol
_atom_site_fract_x 
_atom_site_fract_y
_atom_site_fract_z
_atom_site_charge
C C 0.2427475533008334 0.9042901620725874 0.6393409185775341 0.0
H H 0.24162755330083335 0.9548601620725874 0.624410918577534 0.0
C C 0.24849806647904515 0.8638384477177511 0.5232795223776904 0.0
H H 0.24977806647904513 0.8825084477177512 0.45473952237769033 0.0
C C 0.23774761857189833 0.7710146209519415 0.5590895390016566 0.0
C C 0.2406981180331326 0.7463615852195289 0.6357193288508123 0.0
H H 0.2432681180331326 0.6959315852195289 0.6524793288508123 0.0
C C 0.24127976052817876 0.7839737758492241 0.7292725763233813 0.0
H H 0.24205976052817876 0.7668537758492241 0.7990425763233813 0.0
C C 0.36518855011809626 0.9291969507607313 0.993935271760262 0.0
H H 0.33876855011809626 0.8965669507607315 1.028105271760262 0.0
C C 0.42546931510304475 0.9240248598767141 1.0284600280004315 0.0
H H 0.4443493151030447 0.8970948598767141 1.0890200280004314 0.0
C C 0.4743869689501561 1.0083354644949252 1.007738235437154 0.0
C C 0.4217983486295971 1.0371983474207758 0.880312614169081 0.0
H H 0.44756834862959693 1.0693683474207756 0.8443726141690809 0.0
C C 0.37284429780664563 1.015369085638501 0.8752379989840848 0.0
H H 0.35262429780664556 1.041739085638501 0.8147979989840847 0.0
C C 0.16657744663225232 0.9059602013097594 0.9628096023541278 0.0
C C 0.13940772291737535 0.8561977740439971 1.0828390761068467 0.0
C C 0.08172701736599887 0.8046465746741729 1.0355791008233592 0.0
H H 0.08210701736599885 0.7907265746741728 0.9645491008233593 0.0
C C 0.041085684189454456 0.7619742586187935 1.0528950493105025 0.0
H H 0.015465684189454454 0.7216542586187934 1.0220550493105025 0.0
C C 0.05271956662803439 0.764075427255701 1.1869008984073497 0.0
C C 0.0699507198096097 0.8411826490182324 1.2337936079044702 0.0
H H 0.0671307198096097 0.8562526490182323 1.3035636079044703 0.0
C C 0.12559814938384403 0.8725101380376038 1.1504356566229954 0.0
C C 0.16071541702391898 0.9418831173739379 1.2039102673477968 0.0
C C 0.013050686937010192 0.7373805936956845 1.250118260243708 0.0
C C -0.057424915088308805 0.6938010713784388 1.1790049797521767 0.0
F F -0.1039170182740778 0.7331845660536972 1.1135327747171104 0.0
F F -0.03558519563463806 0.6312191085106322 1.1247904372571047 0.0
F F -0.08884528036025059 0.639626032528 1.2464338149022127 0.0
N N 0.23360297688570994 0.8791831094314697 0.6882322706555744 0.0
N N 0.33042895914822096 0.9778200703859937 0.9148067090223571 0.0
O O 0.1648377550068114 0.9630991363977935 0.994616182789448 0.0
O O 0.20711297302665393 0.8609171086231648 0.9391203896033453 0.0
O O 0.2315944452100474 0.9282482882227828 1.2064320445125936 0.0
O O 0.12476698300317371 1.010899492451379 1.2524070891801122 0.0
Zn Zn 0.22308745080447934 0.9411096325035944 0.8574531962963514 0.0
C C -0.24662986029146872 0.8941860201447732 -0.12832271137596554 0.0
H H -0.2455098602914687 0.9447560201447732 -0.11339271137596554 0.0
C C -0.25557685386393 0.852928710101198 -0.03488099157358001 0.0
H H -0.25685685386393 0.8715987101011982 0.03365900842641997 0.0
C C -0.22615585356909182 0.7515425668994156 -0.03821970124177575 0.0
C C -0.21710348416822092 0.7432268176109685 -0.10725875804897227 0.0
H H -0.2196734841682209 0.6927968176109685 -0.12401875804897228 0.0
C C -0.266816053115333 0.7881798548847686 -0.25956575402088083 0.0
H H -0.26759605311533297 0.7710598548847686 -0.32933575402088083 0.0
C C -0.33410614644604664 0.9398196530791724 -0.4574160073715886 0.0
H H -0.3076861464460466 0.9071896530791724 -0.49158600737158864 0.0
C C -0.4143234238160901 0.9416434361659878 -0.5162732914158795 0.0
H H -0.43320342381609006 0.9147134361659878 -0.5768332914158795 0.0
C C -0.4626077171596326 0.9822235499029698 -0.4941317764847367 0.0
C C -0.44386978540141075 1.0397485764852428 -0.3944306442993246 0.0
H H -0.4696397854014107 1.0719185764852424 -0.35849064429932465 0.0
C C -0.3598826234809596 1.0234191206998347 -0.369101845977523 0.0
H H -0.3396626234809596 1.0497891206998347 -0.30866184597752294 0.0
C C -0.17699695080177985 0.9186106332340684 -0.5195374594953888 0.0
C C -0.12637835497264022 0.8635338494967878 -0.567434931243172 0.0
C C -0.09015126891031025 0.7885514122087642 -0.5341703566944715 0.0
H H -0.09053126891031023 0.7746314122087643 -0.46314035669447146 0.0
C C -0.04959612519834718 0.7632358053223404 -0.5875630478015397 0.0
H H -0.023976125198347187 0.7229158053223403 -0.5567230478015397 0.0
C C -0.0398916592448502 0.778518695228735 -0.6711246931496381 0.0
C C -0.08736249680830556 0.8191465959127251 -0.7329663550151219 0.0
H H -0.08454249680830557 0.834216595912725 -0.802736355015122 0.0
C C -0.12077552973985221 0.8842089621845598 -0.66638423250226 0.0
C C -0.18264997263355057 0.9376066113200902 -0.714942596717133 0.0
C C 0.0021822783783433833 0.7511638458297216 -0.7543712067358431 0.0
C C 0.0652581613434274 0.6799803969755217 -0.7204255776676759 0.0
F F 0.08354002475421307 0.7380897657770684 -0.6145104647548022 0.0
F F 0.024147661504974407 0.6431697863056592 -0.631887985220852 0.0
F F 0.11422574726950915 0.6588167024536221 -0.7345364452724309 0.0
N N -0.25061541679231325 0.8763681671785474 -0.20152290005247275 0.0
N N -0.3186613861796967 0.9757167567241452 -0.39722593985507076 0.0
O O -0.15206451458294795 0.9586256875535591 -0.47257566254164857 0.0
O O -0.19853197762469715 0.8704413781243104 -0.42255555223957214 0.0
O O -0.21092510922397922 0.9380583159839262 -0.7192256682190675 0.0
O O -0.13965404462581085 0.9961687354205602 -0.7669778887646156 0.0
Zn Zn -0.21156201331926835 0.9501669895504579 -0.32535181931001567 0.0
C C 0.7526832398033856 1.411599673989991 0.6108937995643525 0.0
H H 0.7515632398033856 1.462169673989991 0.5959637995643525 0.0
C C 0.7521213738360741 1.3534574328209164 0.5235743931463769 0.0
H H 0.7534013738360742 1.372127432820916 0.4550343931463769 0.0
C C 0.7353414473355866 1.2816018665114124 0.5243346802356861 0.0
C C 0.751353046170718 1.264079883590927 0.6483307173004106 0.0
H H 0.7539230461707179 1.2136498835909273 0.6650907173004106 0.0
C C 0.7220777549325439 1.324543069768698 0.7147151090279983 0.0
H H 0.7228577549325438 1.3074230697686977 0.7844851090279983 0.0
C C 0.8675287098753536 1.4310505126872408 0.9897598515038876 0.0
H H 0.8411087098753535 1.3984205126872409 1.0239298515038875 0.0
C C 0.9316752067054233 1.4704852966981017 1.0321395376021811 0.0
H H 0.9505552067054233 1.4435552966981018 1.0926995376021809 0.0
C C 0.9712917833537061 1.4961187202094826 0.9837400737697682 0.0
C C 0.93929123107937 1.512530335601907 0.8870741723599442 0.0
H H 0.96506123107937 1.5447003356019071 0.8511341723599442 0.0
C C 0.8629579545519301 1.4984648198418828 0.803969290898642 0.0
H H 0.8427379545519301 1.5248348198418828 0.743529290898642 0.0
C C 0.6696643678158917 1.389702194056003 1.005040603910577 0.0
C C 0.6300451584360465 1.3651720914430088 1.0664841087185524 0.0
C C 0.587756164405984 1.3068977866719194 1.0076532782465537 0.0
H H 0.5881361644059839 1.2929777866719196 0.9366232782465537 0.0
C C 0.5607498551433157 1.2472649772418842 1.0729235424795174 0.0
H H 0.5351298551433158 1.2069449772418843 1.0420835424795176 0.0
C C 0.5392787034019376 1.2947034528644954 1.1816391220399893 0.0
C C 0.5906695604812113 1.3530338740015198 1.2020496580873374 0.0
H H 0.5878495604812114 1.3681038740015197 1.2718196580873375 0.0
C C 0.6085996327536062 1.3837783581394894 1.1476711732152611 0.0
C C 0.6817620198733402 1.4210490245828877 1.2017754272684973 0.0
C C 0.4971687425219149 1.2226015893063455 1.2799872126077299 0.0
C C 0.44556087681516715 1.188405016094242 1.163651261061986 0.0
F F 0.39953523623146253 1.218187410304658 1.1261135750404672 0.0
F F 0.47149152265221 1.1261505622288703 1.1182815658604344 0.0
F F 0.432384716400314 1.1266951864415955 1.2601671937875267 0.0
N N 0.7191632882337825 1.3685334357324836 0.719554422899748 0.0
N N 0.8191651941407107 1.4668127051453794 0.8978482504003439 0.0
O O 0.6842418224540328 1.4466899528708024 1.0055729034315162 0.0
O O 0.6940565800878502 1.3487606651826096 0.9264741475741032 0.0
O O 0.740457147219977 1.4098277249445283 1.2043979227446115 0.0
O O 0.6620821692593488 1.4825374924684294 1.2449270903651413 0.0
Zn Zn 0.725444808980926 1.4589605168876176 0.8177854913382474 0.0
C C 0.2610295744358831 1.3926834714055336 -0.08552065733890246 0.0
H H 0.26214957443588305 1.4432534714055336 -0.07059065733890248 0.0
C C 0.24268766834935057 1.3661797941916338 -0.023091889232361305 0.0
H H 0.24140766834935062 1.3848497941916336 0.04544811076763868 0.0
C C 0.2597074846025368 1.274516639966407 -0.03327265979796192 0.0
C C 0.26409314192696925 1.2508311668036423 -0.13791551160782078 0.0
H H 0.2615231419269692 1.2004011668036423 -0.15467551160782075 0.0
C C 0.26143941403188303 1.302442329409051 -0.2377239965826376 0.0
H H 0.26065941403188303 1.285322329409051 -0.30749399658263754 0.0
C C 0.1423736545351525 1.4393675252875087 -0.4911285615671855 0.0
H H 0.16879365453515244 1.4067375252875087 -0.5252985615671856 0.0
C C 0.06923698558942176 1.4567124574714714 -0.5150488532345944 0.0
H H 0.05035698558942175 1.4297824574714717 -0.5756088532345943 0.0
C C 0.040132227403768574 1.4959324438941313 -0.4928914692576247 0.0
C C 0.07344058324768968 1.5126434934502693 -0.3772053954518414 0.0
H H 0.04767058324768966 1.544813493450269 -0.3412653954518414 0.0
C C 0.13276751293728084 1.5120070520938762 -0.3529331468906281 0.0
H H 0.15298751293728086 1.538377052093876 -0.292493146890628 0.0
C C 0.3369924371220562 1.4012499398813283 -0.501644840705731 0.0
C C 0.37983197183594086 1.3480988519806423 -0.5941064906899689 0.0
C C 0.4217816496712417 1.319411346033993 -0.4946317091833529 0.0
H H 0.4214016496712417 1.3054913460339932 -0.4236017091833528 0.0
C C 0.4743766881312623 1.2632918334159775 -0.5710427036831695 0.0
H H 0.4999966881312623 1.2229718334159776 -0.5402027036831694 0.0
C C 0.4676709510409325 1.2891851294483414 -0.66167645414952 0.0
C C 0.4204302482063123 1.3367730170744663 -0.7440671417443013 0.0
H H 0.4232502482063122 1.3518430170744662 -0.8138371417443014 0.0
C C 0.3541349076309643 1.381698329771048 -0.6693794613648392 0.0
C C 0.33042842714843407 1.4245467319287177 -0.7416979843600892 0.0
C C 0.5030679148362758 1.2272734480438938 -0.7884498651075387 0.0
C C 0.5554412603235562 1.1695604921251155 -0.6649720835297422 0.0
F F 0.5858489774827563 1.2243449793207437 -0.5910961169298569 0.0
F F 0.5198316026843762 1.123473327183252 -0.6349069121892706 0.0
F F 0.5903084451525106 1.1461735549406002 -0.752297864325818 0.0
N N 0.27732553331736576 1.3817762375647507 -0.21296634424462985 0.0
N N 0.18368418612104034 1.478378390889421 -0.4005362175739863 0.0
O O 0.3289774312483374 1.4497502712206405 -0.4786553904294494 0.0
O O 0.31022712059614704 1.3455846963051625 -0.40293623842285875 0.0
O O 0.25436520302865184 1.4212176620823014 -0.7359714198825337 0.0
O O 0.36756557117089583 1.4757558330605587 -0.7489347728362482 0.0
Zn Zn 0.2651904194979578 1.439277801169951 -0.3421819845633947 0.0
C C -0.23030616575831767 -0.872320405412876 -0.622581865329323 0.0
H H -0.22918616575831763 -0.9228904054128759 -0.607651865329323 0.0
C C -0.2566387571672894 -0.8312859593766945 -0.5253874871949774 0.0
H H -0.2579187571672894 -0.8499559593766947 -0.4568474871949774 0.0
C C -0.24250534373694735 -0.7874612753783473 -0.5332115582985518 0.0
C C -0.2531545282553002 -0.7448136364122773 -0.6573956613365398 0.0
H H -0.2557245282553003 -0.6943836364122773 -0.6741556613365398 0.0
C C -0.23684149821292502 -0.812384691746357 -0.7378190908505218 0.0
H H -0.23762149821292497 -0.7952646917463569 -0.8075890908505218 0.0
C C -0.3555517292563695 -0.915372927432783 -0.993282410833188 0.0
H H -0.3291317292563695 -0.8827429274327832 -1.027452410833188 0.0
C C -0.42891601748892155 -0.9757075681018429 -1.0251691417369038 0.0
H H -0.4477960174889215 -0.9487775681018429 -1.0857291417369037 0.0
C C -0.44764834121766867 -1.0124553403784473 -0.9875218919934897 0.0
C C -0.4362863010636456 -1.038316372591967 -0.9037810212477999 0.0
H H -0.4620563010636455 -1.0704863725919669 -0.8678410212477998 0.0
C C -0.35810057575982845 -1.032939974682072 -0.8548886113259769 0.0
H H -0.33788057575982844 -1.0593099746820722 -0.7944486113259768 0.0
C C -0.17486967468951908 -0.8935154543792874 -1.0027324896024243 0.0
C C -0.11029684134257561 -0.8528762069830389 -1.0506594865386394 0.0
C C -0.0731053975583174 -0.7806483723201126 -0.99665227201997 0.0
H H -0.07348539755831739 -0.7667283723201126 -0.9256222720199699 0.0
C C -0.060884279855023746 -0.739755277089374 -1.097005143140714 0.0
H H -0.03526427985502375 -0.699435277089374 -1.066165143140714 0.0
C C -0.04683187405758456 -0.772191423603776 -1.1652728784504918 0.0
C C -0.0942216870066632 -0.8116725863387555 -1.2393535186052669 0.0
H H -0.09140168700666321 -0.8267425863387554 -1.309123518605267 0.0
C C -0.1102409848467588 -0.8801916318166846 -1.1877225181135993 0.0
C C -0.1850052996641772 -0.9373957054377107 -1.222474781244226 0.0
C C 0.007848390950566018 -0.7393900998993101 -1.263726366389929 0.0
C C 0.04224901095456997 -0.6659549419431425 -1.178283691849938 0.0
F F 0.0766757507119417 -0.7030953046561063 -1.1287521570854675 0.0
F F 0.030407449755095427 -0.6474956447750378 -1.1049416803684706 0.0
F F 0.1132379588615857 -0.6602779246671158 -1.2454838924290557 0.0
N N -0.22783022800793978 -0.881900437848865 -0.7019648265510235 0.0
N N -0.31971283281461355 -0.98627606907769 -0.8735496857890802 0.0
O O -0.17735120861097814 -0.9606350900444667 -0.9915767494235984 0.0
O O -0.1942238660910866 -0.8680739526512192 -0.91746570631618 0.0
O O -0.22583107800459368 -0.9320704302765137 -1.2492911124430564 0.0
O O -0.13519620436768667 -0.9913050637027156 -1.2609282813901426 0.0
Zn Zn -0.2338175402781967 -0.9617042475698485 -0.8200425751854308 0.0
C C 0.24233358487634382 -0.8849982137464206 0.09693519176552393 0.0
H H 0.2412135848763438 -0.9355682137464205 0.08200519176552394 0.0
C C 0.2417583669129355 -0.8396058076683338 0.04381422859103834 0.0
H H 0.24303836691293554 -0.8582758076683339 -0.02472577140896165 0.0
C C 0.2814684074703561 -0.7885003642825772 0.04781983618440774 0.0
C C 0.2546106182986207 -0.7448929109606718 0.13576676984393635 0.0
H H 0.25718061829862066 -0.6944629109606717 0.15252676984393634 0.0
C C 0.2338307776269404 -0.8005198735577534 0.22286642322822675 0.0
H H 0.23461077762694035 -0.7833998735577534 0.2926364232282267 0.0
C C 0.3547623059989337 -0.9338876786450889 0.49113442237542987 0.0
H H 0.3283423059989337 -0.9012576786450891 0.52530442237543 0.0
C C 0.43088469285087483 -0.9461229561170207 0.5222279093724383 0.0
H H 0.4497646928508748 -0.9191929561170206 0.5827879093724383 0.0
C C 0.45291701143715796 -0.9893814607904831 0.4878677849863672 0.0
C C 0.4188180967212473 -1.0259017868435636 0.4065175521990491 0.0
H H 0.4445880967212473 -1.0580717868435634 0.3705775521990492 0.0
C C 0.35395269042252325 -1.0228234199331976 0.3420830834413926 0.0
H H 0.3337326904225232 -1.0491934199331976 0.2816430834413925 0.0
C C 0.15843735067362844 -0.8914968795128649 0.466130388097836 0.0
C C 0.13477530858654277 -0.8694262005771859 0.5739137766759024 0.0
C C 0.08588941329092323 -0.8021266432844771 0.526920693013042 0.0
H H 0.0862694132909232 -0.7882066432844772 0.45589069301304197 0.0
C C 0.04279241912989386 -0.7699290306918289 0.5935724283863936 0.0
H H 0.017172419129893857 -0.7296090306918289 0.5627324283863936 0.0
C C 0.04527928731765155 -0.7764949543153522 0.6787109722329852 0.0
C C 0.08137658589269475 -0.8676406924849592 0.7118134964819947 0.0
H H 0.07855658589269478 -0.882710692484959 0.7815834964819949 0.0
C C 0.10984981435644164 -0.8835079187441667 0.6502881279792277 0.0
C C 0.1566531364257585 -0.9367378490953462 0.7211509667742001 0.0
C C -0.0006674949702998909 -0.7207368625016021 0.7483529438549392 0.0
C C -0.04929174237456882 -0.7076233223514709 0.6829997377477439 0.0
F F -0.08788877090113509 -0.7326191462101629 0.5876393722033119 0.0
F F -0.03499373791040934 -0.6233656387030136 0.6158741112705707 0.0
F F -0.09883937211943279 -0.6616472406809224 0.7587982684663814 0.0
N N 0.23539612879252184 -0.8662620565746839 0.20988175734238151 0.0
N N 0.3262730637915893 -0.9671737204433201 0.39878821584154645 0.0
O O 0.16187982598637582 -0.9652604248291111 0.48026834514330224 0.0
O O 0.20279498653770525 -0.8641063479416321 0.4377249966374753 0.0
O O 0.2396035202363714 -0.9405029862930084 0.7049438183401433 0.0
O O 0.1454987877666807 -0.987579974608533 0.780442747926655 0.0
Zn Zn 0.22158779469815282 -0.9561570924160187 0.3189798659951383 0.0
C C 0.2706813741121751 -0.3791541948537516 -0.608119846360612 0.0
H H 0.2718013741121751 -0.4297241948537516 -0.593189846360612 0.0
C C 0.23866392500848338 -0.3559852136065808 -0.5398744737725576 0.0
H H 0.23738392500848343 -0.37465521360658083 -0.4713344737725576 0.0
C C 0.2402018371154255 -0.2911729904740844 -0.5585436980503136 0.0
C C 0.2630839546629322 -0.24190621318708197 -0.6444127299710031 0.0
H H 0.26051395466293215 -0.19147621318708194 -0.6611727299710031 0.0
C C 0.2755873247026839 -0.30247360535373086 -0.6982294296024039 0.0
H H 0.2748073247026839 -0.2853536053537309 -0.7679994296024039 0.0
C C 0.14427382942358083 -0.42390503642639193 -0.9945065728088657 0.0
H H 0.1706938294235808 -0.39127503642639194 -1.0286765728088656 0.0
C C 0.07309070713712552 -0.44919660165904424 -1.014337166462477 0.0
H H 0.05421070713712553 -0.42226660165904417 -1.0748971664624767 0.0
C C 0.05336149654176573 -0.5060849773833294 -0.9801634719420114 0.0
C C 0.07103212108779017 -0.539527217116656 -0.8964589031584572 0.0
H H 0.045262121087790166 -0.5716972171166558 -0.8605189031584571 0.0
C C 0.11722900059571577 -0.5005515928813776 -0.8358881321708752 0.0
H H 0.1374490005957158 -0.5269215928813776 -0.775448132170875 0.0
C C 0.3341083462357805 -0.41076332849028974 -0.9709326874843761 0.0
C C 0.36895219682704616 -0.369221003055175 -1.0521989876775895 0.0
C C 0.43182292422029145 -0.3128719825767257 -0.9839944451886046 0.0
H H 0.43144292422029146 -0.2989519825767258 -0.9129644451886045 0.0
C C 0.45122560120041044 -0.2502040641989026 -1.0837632346652946 0.0
H H 0.4768456012004104 -0.2098840641989026 -1.0529232346652948 0.0
C C 0.45513661616431916 -0.266730295366408 -1.1776330040383003 0.0
C C 0.43566420698872377 -0.3407109942067405 -1.2260543491663058 0.0
H H 0.4384842069887237 -0.3557809942067404 -1.295824349166306 0.0
C C 0.3778365131549252 -0.38254477401640935 -1.1600064203342466 0.0
C C 0.3392850508069418 -0.428346672465763 -1.2261472431434224 0.0
C C 0.5243622170095893 -0.23267835210910345 -1.2372636548877263 0.0
C C 0.5689031783647446 -0.17450160043178714 -1.1907302255928311 0.0
F F 0.5832409156979209 -0.22642323959363855 -1.105417623774418 0.0
F F 0.524585330536319 -0.10397412910922572 -1.1565731456191002 0.0
F F 0.5730892786156965 -0.1508621540296176 -1.2433974712815612 0.0
N N 0.2571682790195258 -0.3839605985598023 -0.7027821746584247 0.0
N N 0.18952718247117287 -0.49550462159899383 -0.9004565772608362 0.0
O O 0.35171351801806894 -0.4678532076847247 -0.9823350733203079 0.0
O O 0.3051074734566159 -0.3724748156930318 -0.9440722743953106 0.0
O O 0.25994539368069913 -0.4303295590201818 -1.2126510044320782 0.0
O O 0.3645396506907815 -0.4722389540550172 -1.244366096289727 0.0
Zn Zn 0.2796636168451699 -0.45499253250811367 -0.8251794031632534 0.0
C C 0.7392073851534192 -0.3996304416838199 0.11232934475106904 0.0
H H 0.7380873851534192 -0.4502004416838199 0.09739934475106904 0.0
C C 0.7313422345587329 -0.3684661170237954 0.031072650599949694 0.0
H H 0.7326222345587329 -0.38713611702379547 -0.03746734940005029 0.0
C C 0.7676659868606772 -0.2891287381122389 0.05791077432562089 0.0
C C 0.7626044200704408 -0.25513433664227014 0.12764490260203146 0.0
H H 0.7651744200704409 -0.20470433664227017 0.14440490260203145 0.0
C C 0.7344172317321692 -0.2934733751504563 0.23485512722620627 0.0
H H 0.7351972317321691 -0.27635337515045627 0.3046251272262062 0.0
C C 0.8467782295401215 -0.4578305184188389 0.46071093243003164 0.0
H H 0.8203582295401214 -0.425200518418839 0.4948809324300317 0.0
C C 0.9055948747492094 -0.4759675337469049 0.4927315696022476 0.0
H H 0.9244748747492093 -0.4490375337469049 0.5532915696022476 0.0
C C 0.9531825908115035 -0.5046197711753823 0.4667392318461083 0.0
C C 0.9581235148972246 -0.537574149556107 0.4239440817463245 0.0
H H 0.9838935148972247 -0.5697441495561069 0.38800408174632456 0.0
C C 0.8789436853928915 -0.5068509873586043 0.3659353845877559 0.0
H H 0.8587236853928916 -0.5332209873586043 0.30549538458775577 0.0
C C 0.6683782709335463 -0.40025693738359247 0.4995904502677555 0.0
C C 0.6222814376892435 -0.35767726957785934 0.5716873390894899 0.0
C C 0.579888633797934 -0.3016841391764613 0.5186103813658968 0.0
H H 0.5802686337979339 -0.2877641391764614 0.4475803813658967 0.0
C C 0.5604210031299485 -0.24937539542645648 0.5573797175521532 0.0
H H 0.5348010031299485 -0.2090553954264565 0.5265397175521532 0.0
C C 0.5321504916917089 -0.2834967143044889 0.6600770151235099 0.0
C C 0.5924474560385503 -0.3244865394745462 0.7254686286077044 0.0
H H 0.5896274560385504 -0.3395565394745461 0.7952386286077046 0.0
C C 0.6160511638524367 -0.3957809931870983 0.6495144467515762 0.0
C C 0.6615079979513001 -0.42675215283682233 0.7250103215218144 0.0
C C 0.5160684179567699 -0.22625673568639437 0.7507807736798978 0.0
C C 0.4389141124653105 -0.1700514864848896 0.6898623079668449 0.0
F F 0.3828496625948306 -0.20203880032831126 0.5751816852433892 0.0
F F 0.4924489975994988 -0.12666196070846453 0.6707336938631773 0.0
F F 0.4136946722970585 -0.15767109359411957 0.7476888498371631 0.0
N N 0.7315848894806402 -0.376676483839847 0.21498642820650418 0.0
N N 0.832840143184929 -0.4838905693012575 0.43630583752582797 0.0
O O 0.6663002727593453 -0.48172636815610964 0.46395517343803244 0.0
O O 0.6774594740187965 -0.3697942411088073 0.42688282535852473 0.0
O O 0.7273011026804989 -0.4170218989009207 0.7196110343765056 0.0
O O 0.6731736557904638 -0.4832244245537351 0.791526947487047 0.0
Zn Zn 0.7259794728557792 -0.436636005467873 0.3192260424692991 0.0
