#======================================================================

# CRYSTAL DATA

#----------------------------------------------------------------------

data_VESTA_phase_1


_chemical_name_common                  'SIFSIX_1_Cu                           '
_cell_length_a                         11.04500
_cell_length_b                         11.04500
_cell_length_c                         8.16300
_cell_angle_alpha                      90
_cell_angle_beta                       90
_cell_angle_gamma                      90
_symmetry_space_group_name_H-M         P 1
_symmetry_Int_Tables_number            1

loop_
_space_group_symop_operation_xyz
   'x, y, z'

loop_
   _atom_site_label
   _atom_site_occupancy
   _atom_site_fract_x
   _atom_site_fract_y
   _atom_site_fract_z
   _atom_site_adp_type
   _atom_site_B_iso_or_equiv
   _atom_site_type_symbol
   C1         1.0     0.257311      0.457585      0.368999     Biso  1.000000 C
   C2         1.0     0.131594      0.456767      0.364768     Biso  1.000000 C
   C3         1.0     0.742689      0.542415      0.368999     Biso  1.000000 C
   C4         1.0     0.868406      0.543233      0.364768     Biso  1.000000 C
   C5         1.0     0.542415      0.257311      0.368999     Biso  1.000000 C
   C6         1.0     0.543233      0.131594      0.364768     Biso  1.000000 C
   C7         1.0     0.457585      0.742689      0.368999     Biso  1.000000 C
   C8         1.0     0.456767      0.868406      0.364768     Biso  1.000000 C
   C9         1.0     0.742689      0.457585      0.631001     Biso  1.000000 C
   C10        1.0     0.868406      0.456767      0.635232     Biso  1.000000 C
   C11        1.0     0.257311      0.542415      0.631001     Biso  1.000000 C
   C12        1.0     0.131594      0.543233      0.635232     Biso  1.000000 C
   C13        1.0     0.457585      0.257311      0.631001     Biso  1.000000 C
   C14        1.0     0.456767      0.131594      0.635232     Biso  1.000000 C
   C15        1.0     0.542415      0.742689      0.631001     Biso  1.000000 C
   C16        1.0     0.543233      0.868406      0.635232     Biso  1.000000 C
   C17        1.0     0.066663      0.500000      0.500000     Biso  1.000000 C
   C18        1.0     0.933337      0.500000      0.500000     Biso  1.000000 C
   C19        1.0     0.500000      0.066663      0.500000     Biso  1.000000 C
   C20        1.0     0.500000      0.933337      0.500000     Biso  1.000000 C
   H1         1.0     0.311480      0.425621      0.265696     Biso  1.000000 H
   H2         1.0     0.084922      0.420684      0.257838     Biso  1.000000 H
   H3         1.0     0.688520      0.574379      0.265696     Biso  1.000000 H
   H4         1.0     0.915078      0.579316      0.257838     Biso  1.000000 H
   H5         1.0     0.574379      0.311480      0.265696     Biso  1.000000 H
   H6         1.0     0.579316      0.084922      0.257838     Biso  1.000000 H
   H7         1.0     0.425621      0.688520      0.265696     Biso  1.000000 H
   H8         1.0     0.420684      0.915078      0.257838     Biso  1.000000 H
   H9         1.0     0.688520      0.425621      0.734304     Biso  1.000000 H
   H10        1.0     0.915078      0.420684      0.742162     Biso  1.000000 H
   H11        1.0     0.311480      0.574379      0.734304     Biso  1.000000 H
   H12        1.0     0.084922      0.579316      0.742162     Biso  1.000000 H
   H13        1.0     0.425621      0.311480      0.734304     Biso  1.000000 H
   H14        1.0     0.420684      0.084922      0.742162     Biso  1.000000 H
   H15        1.0     0.574379      0.688520      0.734304     Biso  1.000000 H
   H16        1.0     0.579316      0.915078      0.742162     Biso  1.000000 H
   Cu1        1.0     0.500000      0.500000      0.500000     Biso  1.000000 Cu
   Si1        1.0     0.500000      0.500000      0.000000     Biso  1.000000 Si
   F1         1.0     0.500000      0.500000      0.785058     Biso  1.000000 F
   F2         1.0     0.500000      0.500000      0.214942     Biso  1.000000 F
   F3         1.0     0.390352      0.390352      0.000000     Biso  1.000000 F
   F4         1.0     0.609648      0.609648      0.000000     Biso  1.000000 F
   F5         1.0     0.609648      0.390352      0.000000     Biso  1.000000 F
   F6         1.0     0.390352      0.609648      0.000000     Biso  1.000000 F
   N1         1.0     0.318061      0.500000      0.500000     Biso  1.000000 N
   N2         1.0     0.681939      0.500000      0.500000     Biso  1.000000 N
   N3         1.0     0.500000      0.318061      0.500000     Biso  1.000000 N
   N4         1.0     0.500000      0.681939      0.500000     Biso  1.000000 N
