#======================================================================

# CRYSTAL DATA

#----------------------------------------------------------------------

data_VESTA_phase_1


_chemical_name_common                  'SIFSIX_2_Cu                           '
_cell_length_a                         13.63160
_cell_length_b                         13.63160
_cell_length_c                         7.96800
_cell_angle_alpha                      90
_cell_angle_beta                       90
_cell_angle_gamma                      90
_symmetry_space_group_name_H-M         P 1
_symmetry_Int_Tables_number            1

loop_
_space_group_symop_operation_xyz
   'x, y, z'

loop_
   _atom_site_label
   _atom_site_occupancy
   _atom_site_fract_x
   _atom_site_fract_y
   _atom_site_fract_z
   _atom_site_adp_type
   _atom_site_B_iso_or_equiv
   _atom_site_type_symbol
   C1         1.0     0.531242      0.697564      0.136446     Biso  1.000000 C
   C2         1.0     0.532527      0.799121      0.141096     Biso  1.000000 C
   C3         1.0     0.468758      0.302436      0.136446     Biso  1.000000 C
   C4         1.0     0.467473      0.200878      0.141096     Biso  1.000000 C
   C5         1.0     0.302436      0.531242      0.136446     Biso  1.000000 C
   C6         1.0     0.200878      0.532527      0.141096     Biso  1.000000 C
   C7         1.0     0.697564      0.468758      0.136446     Biso  1.000000 C
   C8         1.0     0.799121      0.467473      0.141096     Biso  1.000000 C
   C9         1.0     0.468758      0.697564      0.863554     Biso  1.000000 C
   C10        1.0     0.467473      0.799121      0.858904     Biso  1.000000 C
   C11        1.0     0.531242      0.302436      0.863554     Biso  1.000000 C
   C12        1.0     0.532527      0.200878      0.858904     Biso  1.000000 C
   C13        1.0     0.697564      0.531242      0.863554     Biso  1.000000 C
   C14        1.0     0.799121      0.532527      0.858904     Biso  1.000000 C
   C15        1.0     0.302436      0.468758      0.863554     Biso  1.000000 C
   C16        1.0     0.200878      0.467473      0.858904     Biso  1.000000 C
   C17        1.0     0.500000      0.148117      0.000000     Biso  1.000000 C
   C18        1.0     0.500000      0.044631      0.000000     Biso  1.000000 C
   C19        1.0     0.500000      0.851883      0.000000     Biso  1.000000 C
   C20        1.0     0.500000      0.955369      0.000000     Biso  1.000000 C
   C21        1.0     0.851883      0.500000      0.000000     Biso  1.000000 C
   C22        1.0     0.955369      0.500000      0.000000     Biso  1.000000 C
   C23        1.0     0.148117      0.500000      0.000000     Biso  1.000000 C
   C24        1.0     0.044631      0.500000      0.000000     Biso  1.000000 C
   H1         1.0     0.554770      0.654354      0.244409     Biso  1.000000 H
   H2         1.0     0.558317      0.836961      0.252994     Biso  1.000000 H
   H3         1.0     0.445230      0.345646      0.244409     Biso  1.000000 H
   H4         1.0     0.441683      0.163039      0.252994     Biso  1.000000 H
   H5         1.0     0.345646      0.554770      0.244409     Biso  1.000000 H
   H6         1.0     0.163039      0.558317      0.252994     Biso  1.000000 H
   H7         1.0     0.654354      0.445230      0.244409     Biso  1.000000 H
   H8         1.0     0.836961      0.441683      0.252994     Biso  1.000000 H
   H9         1.0     0.445230      0.654354      0.755591     Biso  1.000000 H
   H10        1.0     0.441683      0.836961      0.747006     Biso  1.000000 H
   H11        1.0     0.554770      0.345646      0.755591     Biso  1.000000 H
   H12        1.0     0.558317      0.163039      0.747006     Biso  1.000000 H
   H13        1.0     0.654354      0.554770      0.755591     Biso  1.000000 H
   H14        1.0     0.836961      0.558317      0.747006     Biso  1.000000 H
   H15        1.0     0.345646      0.445230      0.755591     Biso  1.000000 H
   H16        1.0     0.163039      0.441683      0.747006     Biso  1.000000 H
   Cu1        1.0     0.500000      0.500000      0.000000     Biso  1.000000 Cu
   Si1        1.0     0.500000      0.500000      0.500000     Biso  1.000000 Si
   F1         1.0     0.500000      0.500000      0.717971     Biso  1.000000 F
   F2         1.0     0.500000      0.500000      0.282029     Biso  1.000000 F
   F3         1.0     0.588894      0.588894      0.500000     Biso  1.000000 F
   F4         1.0     0.411106      0.588894      0.500000     Biso  1.000000 F
   F5         1.0     0.411106      0.411106      0.500000     Biso  1.000000 F
   F6         1.0     0.588894      0.411106      0.500000     Biso  1.000000 F
   N1         1.0     0.500000      0.351922      0.000000     Biso  1.000000 N
   N2         1.0     0.500000      0.648078      0.000000     Biso  1.000000 N
   N3         1.0     0.648078      0.500000      0.000000     Biso  1.000000 N
   N4         1.0     0.351922      0.500000      0.000000     Biso  1.000000 N
