_cell_length_a 27.1013
_cell_length_b 9.27321
_cell_length_c 16.979215
_cell_angle_alpha 90.0
_cell_angle_beta 99.1565
_cell_angle_gamma 90.0
_symmetry_space_group_name_H-M         'P 1'
_symmetry_Int_Tables_number            1
loop_
_symmetry_equiv_pos_as_xyz
   'x, y, z'
                         
loop_
_atom_site_label
_atom_site_type_symbol
_atom_site_fract_x 
_atom_site_fract_y
_atom_site_fract_z
_atom_site_charge
Zn Zn -0.1682075568493763 0.7953845778040785 -0.34270367410796937 0.0
Zn Zn -0.16872653529715986 0.38183564218046173 -0.5460874850121074 0.0
O O -0.2332328964556551 0.649887275139546 -0.30938669823408815 0.0
O O -0.17531038269314697 0.6418651343578325 -0.41935737494379893 0.0
O O -0.20472646007484271 0.41517200255329834 -0.4564434935053735 0.0
O O -0.3002264221617312 0.28203832537436396 -0.39227683026370413 0.0
O O -0.36827177388343174 0.4142398558404561 -0.46533528199819785 0.0
O O -0.32103750525469466 0.4348212591246612 -0.25817957939524205 0.0
O O -0.3647563652519796 0.6265630825606288 -0.2349382222006225 0.0
O O -0.3167873885676088 0.9545055283772268 -0.3779397507792334 0.0
O O -0.24077593318059995 0.906618575549596 -0.3969675569471738 0.0
N N -0.11128353985717324 0.6952012591772203 -0.2588208039940201 0.0
N N 0.10008246285285714 0.42919896724242845 -0.0027452011757767756 0.0
C C -0.2391473493903039 0.5439160261995787 -0.3543855627842232 0.0
H H -0.23460834939030395 0.45639602619957875 -0.3216841627842232 0.0
C C -0.29789999351731894 0.5427210741323765 -0.3911752978634887 0.0
H H -0.298240993517319 0.5997910741323766 -0.4398738978634887 0.0
C C -0.32182717681188555 0.637378831362249 -0.34604307686457036 0.0
H H -0.35049817681188544 0.690148831362249 -0.37460167686457035 0.0
C C -0.27562528047060336 0.750027448339531 -0.30409496021138976 0.0
H H -0.2787162804706033 0.7836074483395312 -0.2503435602113898 0.0
C C -0.20383440798622152 0.5343455788307601 -0.41719475610689716 0.0
C C -0.3206106728998626 0.4013240437460265 -0.4161679544919718 0.0
C C -0.3350099250513699 0.5517190497434952 -0.26545473758211774 0.0
C C -0.2745993961030365 0.8720052996565631 -0.36415286557594906 0.0
C C -0.1095446366407569 0.5450911830854654 -0.25111239979974054 0.0
H H -0.13399353664075692 0.4820611830854654 -0.27533059979974056 0.0
C C -0.06900755468012926 0.512467635343282 -0.19558480478011597 0.0
H H -0.06709635468012924 0.4136376353432819 -0.186242904780116 0.0
C C -0.034103034990161374 0.5835019383395001 -0.16130142602710643 0.0
C C -0.03515986852100956 0.743958238744557 -0.17855105083936906 0.0
H H -0.011928668521009567 0.810128238744557 -0.15393105083936906 0.0
C C -0.07735177820151168 0.790246989292343 -0.2326185627062618 0.0
H H -0.08006057820151168 0.8882169892923432 -0.24419856270626183 0.0
C C 0.07562893633885721 0.3503476611152473 -0.051355371286401774 0.0
H H 0.08601783633885722 0.25511766111524725 -0.05413347128640177 0.0
C C 0.02982226206755746 0.39292311936813296 -0.10314316649806855 0.0
H H 0.012451062067557458 0.328293119368133 -0.13932316649806853 0.0
C C 0.017850240668035977 0.5343777654991826 -0.10018132797533753 0.0
C C 0.03931668997674055 0.619018017971091 -0.04340913247687463 0.0
H H 0.029275589976740554 0.713988017971091 -0.03847733247687464 0.0
C C 0.08118711938175098 0.5758523495619564 -0.0033984148732612764 0.0
H H 0.09904601938175098 0.6380223495619564 0.03359338512673873 0.0
Zn Zn 0.16970423623114386 0.7932136424522607 0.8367715364599586 0.0
Zn Zn 0.16984008257151875 0.39223506224097376 1.0414986558298178 0.0
O O 0.22848355320638464 0.6630325864196821 0.8090569326802202 0.0
O O 0.17581619905135565 0.636650651249129 0.9195010368919022 0.0
O O 0.20829813104624048 0.418383779994816 0.950298523974812 0.0
O O 0.30050612384679903 0.2808530851816713 0.8994041364943672 0.0
O O 0.3608005176068327 0.4112003775665063 0.9628293443121229 0.0
O O 0.3222702419245093 0.4349574686910175 0.7519908786764692 0.0
O O 0.3635748161821173 0.6141039515189464 0.7332962872753076 0.0
O O 0.31973024459628907 0.9411959943006534 0.8713144459989354 0.0
O O 0.24539198469564916 0.8954316595710168 0.8996162305469403 0.0
N N 0.11632560850721703 0.6983214408985842 0.7685279548545862 0.0
N N -0.09550873373068108 0.43814546184023884 0.5026880707373479 0.0
C C 0.24030788525698915 0.5341583222090219 0.8556223121878214 0.0
H H 0.23576888525698914 0.44663832220902183 0.8229209121878214 0.0
C C 0.2962659553868716 0.556861906088147 0.9011606009579862 0.0
H H 0.29660695538687165 0.6139319060881471 0.9498592009579863 0.0
C C 0.3218616249641033 0.6378288259560281 0.8368356598485289 0.0
H H 0.35053262496410326 0.6905988259560281 0.8653942598485289 0.0
C C 0.27681913409161196 0.7430865467952238 0.8121470794890835 0.0
H H 0.279910134091612 0.776666546795224 0.7583956794890833 0.0
C C 0.20798434927826862 0.53401803686106 0.9196291435985474 0.0
C C 0.3207862356485525 0.3921411732402103 0.9183105675820984 0.0
C C 0.3353736177536766 0.5607435470816079 0.7717627664945264 0.0
C C 0.28043787976957124 0.8687044225796124 0.8704665982332821 0.0
C C 0.10886167644678811 0.5470071298032495 0.7442811381901722 0.0
H H 0.1333105764467881 0.4839771298032495 0.7684993381901721 0.0
C C 0.07046378291753257 0.5078157679127893 0.6945116235354589 0.0
H H 0.06855258291753256 0.4089857679127893 0.6851697235354589 0.0
C C 0.03283741613050604 0.593078855492339 0.6622982070032994 0.0
C C 0.03663276489920345 0.7296204553604883 0.6750559713841601 0.0
H H 0.013401564899203461 0.7957904553604882 0.65043597138416 0.0
C C 0.07316385013949776 0.7943064254426276 0.7288700488051134 0.0
H H 0.07587265013949775 0.8922764254426278 0.7404500488051134 0.0
C C -0.0754133166233734 0.3466528065376162 0.5571226671278608 0.0
H H -0.08580221662337341 0.2514228065376161 0.5599007671278609 0.0
C C -0.030045728463843405 0.39753403185923836 0.6013077682526691 0.0
H H -0.012674528463843407 0.3329040318592384 0.6374877682526692 0.0
C C -0.01723561213538869 0.544340951848568 0.6094676521392526 0.0
C C -0.043114149927404505 0.6237299837989941 0.5456136045545615 0.0
H H -0.03307304992740451 0.7186999837989941 0.5406818045545616 0.0
C C -0.08160726295386604 0.5811959147444178 0.4998911919338867 0.0
H H -0.09946616295386605 0.6433659147444177 0.4628993919338868 0.0
Zn Zn 0.32512881460007265 1.292929138502958 -0.34586368885618396 0.0
Zn Zn 0.331361726049796 0.9029200301390674 -0.5471980702924811 0.0
O O 0.26654010302280157 1.1709019489359633 -0.3069550261300076 0.0
O O 0.321998890395424 1.143534687321909 -0.43129861986752394 0.0
O O 0.28992420248963396 0.9280799350010633 -0.4591532243950941 0.0
O O 0.1987381995812955 0.7831097763131132 -0.40248929400088285 0.0
O O 0.1339039475894839 0.8983687397590429 -0.463622562020275 0.0
O O 0.1788963868493802 0.9419875549412732 -0.254841259697337 0.0
O O 0.13502943745322665 1.117891909294443 -0.22338391645351435 0.0
O O 0.18159234733989596 1.4516692540990734 -0.3762288988410161 0.0
O O 0.26092820884532936 1.3912243999836804 -0.40166999372636164 0.0
N N 0.3867505374030377 1.1976241917235666 -0.25827563528967634 0.0
N N 0.5980980223498905 0.9378903472936817 0.001298353937326987 0.0
C C 0.2576867325986454 1.0348846422820104 -0.3586061954662339 0.0
H H 0.26222573259864534 0.9473646422820102 -0.3259047954662339 0.0
C C 0.206063432986848 1.0349465150607162 -0.39525724532233475 0.0
H H 0.205722432986848 1.0920165150607162 -0.44395584532233473 0.0
C C 0.18059628944107453 1.1226697319266674 -0.34170150042243774 0.0
H H 0.15192528944107456 1.1754397319266678 -0.37026010042243773 0.0
C C 0.22170086464021782 1.239502597444611 -0.3180318039155542 0.0
H H 0.2186098646402178 1.2730825974446112 -0.26428040391555424 0.0
C C 0.29371718581598677 1.0365285580870967 -0.41427630574472496 0.0
C C 0.17721349842822354 0.8932396689321622 -0.42792749585285766 0.0
C C 0.1640769586039315 1.0476032752165054 -0.2691085237315822 0.0
C C 0.22221939210607428 1.368993578484142 -0.3633072206057075 0.0
C C 0.3899776551049152 1.0567868500751336 -0.24949944464413726 0.0
H H 0.36552875510491534 0.9937568500751337 -0.2737176446441373 0.0
C C 0.43130544878989546 0.9991487488448048 -0.20002860489916316 0.0
H H 0.4332166487898954 0.9003187488448048 -0.1906867048991632 0.0
C C 0.4663249576842425 1.0880632033331992 -0.16394011734778566 0.0
C C 0.46015026381687246 1.2356677634030606 -0.1828761990121356 0.0
H H 0.4833814638168724 1.3018377634030605 -0.15825619901213558 0.0
C C 0.4207596839682096 1.2948676692816496 -0.23154146070305995 0.0
H H 0.4180508839682096 1.3928376692816498 -0.2431214607030599 0.0
C C 0.5761292261768368 0.8427014808948516 -0.06078645419539067 0.0
H H 0.5865181261768371 0.7474714808948516 -0.06356455419539067 0.0
C C 0.534558245661255 0.8960858617889621 -0.112008788214219 0.0
H H 0.517187045661255 0.831455861788962 -0.148188788214219 0.0
C C 0.5149985870096682 1.0317108772137604 -0.10941505895647317 0.0
C C 0.543284363948777 1.1192362104052385 -0.044274043136705576 0.0
H H 0.533243263948777 1.2142062104052385 -0.039342243136705576 0.0
C C 0.583057551794484 1.0867673488770468 0.0011817543943873894 0.0
H H 0.6009164517944842 1.1489373488770467 0.038173554394387396 0.0
Zn Zn 0.6720012599392561 1.3090940665160031 0.8360338575744518 0.0
Zn Zn 0.6688046861955617 0.8935878411905102 1.0496973098687157 0.0
O O 0.7343495567413507 1.1577252356821837 0.8110460558180134 0.0
O O 0.6765660319947655 1.1380823248698868 0.9318622774800406 0.0
O O 0.7048397964000532 0.9203511481498017 0.9541982930588794 0.0
O O 0.797738357665455 0.7926671334680457 0.9004058195975736 0.0
O O 0.8690051894143924 0.9117138690825368 0.9664433747322272 0.0
O O 0.8154346514958818 0.9365312798825098 0.75298225066125 0.0
O O 0.8609067797982229 1.120875925788977 0.7260825293326226 0.0
O O 0.8191201124250578 1.4588835689612656 0.8755201442633018 0.0
O O 0.7372485180129199 1.3873030247828222 0.9020361116065297 0.0
N N 0.6147053362972806 1.1900721172764153 0.7699208644454468 0.0
N N 0.40222371046376015 0.9300389355302479 0.5012330977630955 0.0
C C 0.736877937660989 1.0301738795927105 0.8574474556146027 0.0
H H 0.7323389376609891 0.9426538795927103 0.8247460556146027 0.0
C C 0.7976388727092993 1.0427237640770697 0.8955010970559534 0.0
H H 0.797979872709299 1.0997937640770696 0.9441996970559534 0.0
C C 0.8230722356414191 1.139042379147846 0.8332383437057579 0.0
H H 0.8517432356414191 1.1918123791478459 0.8617969437057579 0.0
C C 0.7769406084355124 1.2296865024804653 0.8124659907821394 0.0
H H 0.7800316084355122 1.2632665024804652 0.7587145907821392 0.0
C C 0.7086915835374281 1.0183318592180763 0.9235216580463331 0.0
C C 0.8203259332530163 0.9038229211918097 0.9265532824358774 0.0
C C 0.8369234438087169 1.0524304569039635 0.7717665037607444 0.0
C C 0.7727815490001869 1.3758409781083811 0.8624820782903325 0.0
C C 0.6034961545540709 1.0554388279463995 0.7495868908675808 0.0
H H 0.627945054554071 0.9924088279463994 0.7738050908675809 0.0
C C 0.5717827609754053 1.0023184761580746 0.6979086064557097 0.0
H H 0.5698715609754051 0.9034884761580745 0.6885667064557098 0.0
C C 0.5277744108173877 1.0798103958359684 0.6625975254521743 0.0
C C 0.5347237071613024 1.2258297567868086 0.674763355351229 0.0
H H 0.5114925071613023 1.2919997567868087 0.6501433553512289 0.0
C C 0.5772821636832292 1.2713775151318423 0.7311489430803442 0.0
H H 0.5799909636832292 1.3693475151318426 0.7427289430803441 0.0
C C 0.4229576659442936 0.8497050932081529 0.5510776896996324 0.0
H H 0.4125687659442936 0.7544750932081529 0.5538557896996325 0.0
C C 0.4649875895050399 0.8931337037067368 0.6107397611337558 0.0
H H 0.48235878950503974 0.828503703706737 0.6469197611337558 0.0
C C 0.48565888055881135 1.0478499690728353 0.6008137686899437 0.0
C C 0.4580798583966152 1.1288978848384805 0.555890150814298 0.0
H H 0.4681209583966152 1.2238678848384805 0.5509583508142982 0.0
C C 0.4154440714881511 1.0809779582448964 0.5014101517266274 0.0
H H 0.39758517148815115 1.1431479582448962 0.4644183517266276 0.0
Zn Zn 0.17709991351520618 -0.7980859481076658 0.3471650347922903 0.0
Zn Zn 0.17382754121149596 -0.3942334083085094 0.5446567544938837 0.0
O O 0.23071178139187373 -0.6595409599951398 0.3104837264372606 0.0
O O 0.18146556921572435 -0.6297341912597251 0.4303954208625795 0.0
O O 0.2065796848619306 -0.4087717326364224 0.45116283373796906 0.0
O O 0.30054104007561666 -0.28074260352752944 0.40248284091846853 0.0
O O 0.36140334394786067 -0.4150911577752368 0.4670657840826171 0.0
O O 0.3222701794073106 -0.4241934079504689 0.25274786269853255 0.0
O O 0.3613382168226843 -0.6358269489498701 0.230700233243812 0.0
O O 0.31754890436331745 -0.9476268259024457 0.373670191845355 0.0
O O 0.23869630365549868 -0.8879001087389939 0.39856380881177933 0.0
N N 0.10906464058014147 -0.6967186501234927 0.26749268131903836 0.0
N N -0.10091353585273193 -0.4376721431510093 0.004916357667945486 0.0
C C 0.24305310116319495 -0.5375308740422049 0.36020989915244855 0.0
H H 0.238514101163195 -0.4500108740422049 0.32750849915244856 0.0
C C 0.2958459787043985 -0.5381764798964909 0.4013594227008161 0.0
H H 0.2961869787043985 -0.5952464798964909 0.45005802270081613 0.0
C C 0.3195126637225377 -0.6418923133579234 0.34356777230321256 0.0
H H 0.3481836637225377 -0.6946623133579234 0.3721263723032125 0.0
C C 0.27893073923580414 -0.7374970487551609 0.315924632811676 0.0
H H 0.28202173923580415 -0.7710770487551609 0.262173232811676 0.0
C C 0.20890739364373057 -0.5326475852636724 0.4138834792676384 0.0
C C 0.32566535944073316 -0.3918480846929042 0.4222930136208611 0.0
C C 0.33511634868791995 -0.5481114268146744 0.2663543193434604 0.0
C C 0.2809449373634727 -0.8789378298919979 0.3706085598295501 0.0
C C 0.10878906479428847 -0.564670140414349 0.24365988567417826 0.0
H H 0.13323796479428848 -0.501640140414349 0.26787808567417826 0.0
C C 0.07181986140337343 -0.4962956475588117 0.20150893354465074 0.0
H H 0.06990866140337343 -0.39746564755881164 0.19216703354465078 0.0
C C 0.026343936108862816 -0.593049210239517 0.15646879729279795 0.0
C C 0.039626109089231996 -0.7342066830005666 0.18153853191326946 0.0
H H 0.016394909089232 -0.8003766830005665 0.1569185319132694 0.0
C C 0.0761499866077185 -0.7912520166776867 0.23717635024236003 0.0
H H 0.07885878660771851 -0.8892220166776867 0.24875635024235998 0.0
C C -0.0771117514863541 -0.360152940274799 0.05614643780487388 0.0
H H -0.0875006514863541 -0.264922940274799 0.058924537804873875 0.0
C C -0.031844047488969345 -0.3868119819055636 0.1007937615894591 0.0
H H -0.014472847488969353 -0.32218198190556363 0.1369737615894591 0.0
C C -0.016245992983797555 -0.543893770296196 0.09696794942212036 0.0
C C -0.04373236952774845 -0.6391629865542373 0.051903367807128675 0.0
H H -0.03369126952774845 -0.7341329865542373 0.046971567807128675 0.0
C C -0.08343494710803068 -0.5727835594314409 -0.0034071194960495405 0.0
H H -0.10129384710803067 -0.6349535594314408 -0.04039891949604954 0.0
Zn Zn -0.17426869894984956 -0.7976484325596513 -0.8362816356470111 0.0
Zn Zn -0.1690276374578972 -0.4041834464718007 -1.0506174540258775 0.0
O O -0.23693833464131467 -0.6622730919559052 -0.8056793931006895 0.0
O O -0.177198224878978 -0.6319047152388254 -0.9236162127736294 0.0
O O -0.20478856860102193 -0.4083284687308777 -0.9541369315154766 0.0
O O -0.30127115341311744 -0.27188056017712753 -0.905023053358921 0.0
O O -0.3629805359430939 -0.41582762793324474 -0.9654422987481298 0.0
O O -0.3147546547248202 -0.43642965082134594 -0.7490613998474518 0.0
O O -0.3610628176616405 -0.6172503415752476 -0.7229929449391268 0.0
O O -0.3184501034370912 -0.9590516174662354 -0.8723507941085848 0.0
O O -0.24303767812835014 -0.9052336928959643 -0.901237391821838 0.0
N N -0.11545626201349052 -0.7054017560960046 -0.7636771831800536 0.0
N N 0.09992244220474922 -0.4320190396850772 -0.5032203728831421 0.0
C C -0.23907848029357193 -0.5223834784278791 -0.8615502902260573 0.0
H H -0.23453948029357188 -0.4348634784278791 -0.8288488902260573 0.0
C C -0.2931894732599577 -0.5402052380976595 -0.8980853333493766 0.0
H H -0.2935304732599577 -0.5972752380976595 -0.9467839333493766 0.0
C C -0.32103931625990667 -0.6312688411219758 -0.8390033994638496 0.0
H H -0.34971031625990673 -0.6840388411219757 -0.8675619994638496 0.0
C C -0.2786767596509075 -0.7479276338448426 -0.8095064058024465 0.0
H H -0.2817677596509075 -0.7815076338448428 -0.7557550058024463 0.0
C C -0.20989379112016496 -0.5267982003065194 -0.9244633876654151 0.0
C C -0.3268757801097695 -0.40273367196394766 -0.9214726249379399 0.0
C C -0.3321480088170019 -0.569209986753522 -0.7673842943892284 0.0
C C -0.2773440188209834 -0.8799597379291292 -0.872595541251236 0.0
C C -0.11041939936249107 -0.5475312894207336 -0.7477968858158738 0.0
H H -0.13486829936249106 -0.48450128942073356 -0.7720150858158739 0.0
C C -0.07002314295741884 -0.49690762167536096 -0.6965969828550042 0.0
H H -0.06811194295741885 -0.398077621675361 -0.6872550828550043 0.0
C C -0.02776401611919053 -0.5938990013611023 -0.6562842831370534 0.0
C C -0.035656665943362524 -0.7344891330518123 -0.6739089350381184 0.0
H H -0.012425465943362534 -0.8006591330518122 -0.6492889350381184 0.0
C C -0.07369898918822516 -0.792398725258152 -0.7230989044115326 0.0
H H -0.07640778918822515 -0.8903687252581521 -0.7346789044115325 0.0
C C 0.07681981829562062 -0.34730744372760225 -0.5592654994070281 0.0
H H 0.08720871829562066 -0.2520774437276022 -0.5620435994070281 0.0
C C 0.026377160267238572 -0.3979706547906964 -0.6086074632643581 0.0
H H 0.009005960267238572 -0.33334065479069636 -0.6447874632643581 0.0
C C 0.01839371458930179 -0.5302828337834523 -0.6040890718228229 0.0
C C 0.04237080724999512 -0.6136862655756372 -0.5455826143965727 0.0
H H 0.03232970724999512 -0.7086562655756372 -0.5406508143965728 0.0
C C 0.08206046490947373 -0.5807485323208662 -0.5073604787065773 0.0
H H 0.09991936490947374 -0.6429185323208663 -0.47036867870657734 0.0
Zn Zn 0.6735793165677445 -0.29795107734473164 0.3419619204598137 0.0
Zn Zn 0.6755226820499276 0.10805076779066657 0.5477611834402102 0.0
O O 0.7371505647081283 -0.1617960497991046 0.3063244991258745 0.0
O O 0.6773008392942833 -0.12054217807728576 0.4289712197851292 0.0
O O 0.7119896434842679 0.07772474900221048 0.4570620933845103 0.0
O O 0.8060519097180529 0.2097844943323465 0.40098791207299717 0.0
O O 0.8643904587483398 0.08736068407021307 0.47102740575576824 0.0
O O 0.8221136261811526 0.05929136229973561 0.2584088674331134 0.0
O O 0.8636535600040532 -0.13596340521676328 0.23038386166235988 0.0
O O 0.8165038699458291 -0.45010123728105556 0.374287180137873 0.0
O O 0.7395759307775601 -0.39862447708194676 0.3954200998305762 0.0
N N 0.6156633415042884 -0.1930197748847796 0.2610659164225014 0.0
N N 0.4006282399265 0.061314131652344575 0.005158392515291627 0.0
C C 0.7392061512900824 -0.028642948004539762 0.3583950463535911 0.0
H H 0.7346671512900824 0.058877051995460276 0.3256936463535911 0.0
C C 0.800103686657007 -0.046141955788280856 0.4029496318459429 0.0
H H 0.800444686657007 -0.1032119557882808 0.4516482318459429 0.0
C C 0.818983278695709 -0.14097712666486065 0.33544839245232 0.0
H H 0.847654278695709 -0.1937471266648606 0.36400699245232 0.0
C C 0.7827445872331168 -0.24378751684427366 0.31328212413471274 0.0
H H 0.7858355872331168 -0.27736751684427374 0.2595307241347128 0.0
C C 0.703165461937116 -0.022177163468211043 0.4191429280189301 0.0
C C 0.8233636287266876 0.09126707910705313 0.42249526788470754 0.0
C C 0.8375190973818792 -0.04733334538072502 0.2665141965489035 0.0
C C 0.7776395622656579 -0.36601547544750057 0.3602642932561812 0.0
C C 0.6054451108122045 -0.05242698640461796 0.24371999930659205 0.0
H H 0.6298940108122045 0.010603013595382065 0.2679381993065921 0.0
C C 0.5693996361363876 -0.0028744598929916127 0.19550607462327332 0.0
H H 0.5674884361363874 0.09595554010700835 0.18616417462327337 0.0
C C 0.5277289821978849 -0.10246419898312463 0.1565222021985496 0.0
C C 0.5337694590274313 -0.22556348936136889 0.17115587592424608 0.0
H H 0.5105382590274314 -0.29173348936136884 0.14653587592424608 0.0
C C 0.5762149837648346 -0.28848815726181215 0.2282849851660286 0.0
H H 0.5789237837648347 -0.38645815726181215 0.23986498516602858 0.0
C C 0.42419353234376966 0.14658732842296338 0.05837131209677868 0.0
H H 0.4138046323437697 0.24181732842296344 0.06114941209677867 0.0
C C 0.4673683370321691 0.10255475022531278 0.11226010409881447 0.0
H H 0.48473953703216915 0.16718475022531276 0.14844010409881445 0.0
C C 0.4851352770773266 -0.03430233986702238 0.09946019561834542 0.0
C C 0.4586854671848547 -0.12614618528412022 0.05613471808198323 0.0
H H 0.46872656718485467 -0.22111618528412022 0.05120291808198324 0.0
C C 0.4134939259498023 -0.07942545154751755 -0.0006384236305856258 0.0
H H 0.3956350259498023 -0.14159545154751746 -0.03763022363058563 0.0
Zn Zn 0.3255558813039998 -0.2911126131604652 -0.8422134015314209 0.0
Zn Zn 0.327452106508122 0.11299918297791761 -1.0548413160405217 0.0
O O 0.2647202050454232 -0.15442266007166344 -0.8059422639091843 0.0
O O 0.3186785676396912 -0.13338686241718256 -0.9280576389258326 0.0
O O 0.2894304635015644 0.09711683738188825 -0.9607422214395223 0.0
O O 0.19813669015628746 0.213679830407399 -0.895472999851825 0.0
O O 0.13720702506317123 0.08850841226043471 -0.9674707713989236 0.0
O O 0.1787944684873017 0.07087044080856315 -0.7607641900739911 0.0
O O 0.13562422003005317 -0.11898743444718905 -0.7362528377637542 0.0
O O 0.18524150570479753 -0.4485492066739102 -0.8789049276296436 0.0
O O 0.2585540796246277 -0.407347098279974 -0.8986453994103388 0.0
N N 0.38724239496234075 -0.20143330298480694 -0.7619935430372368 0.0
N N 0.5989176656454259 0.06331753545656432 -0.5016370410936468 0.0
C C 0.2592872647380857 -0.03270940531062787 -0.857111431891997 0.0
H H 0.2638262647380858 0.05481059468937216 -0.824410031891997 0.0
C C 0.20520952595144656 -0.04334320992479983 -0.894345041274801 0.0
H H 0.2048685259514466 -0.10041320992479978 -0.9430436412748009 0.0
C C 0.18099018350534454 -0.1477196661384509 -0.838871900029571 0.0
H H 0.1523191835053445 -0.20048966613845087 -0.867430500029571 0.0
C C 0.21823985972549392 -0.24999140373683204 -0.8092178980265784 0.0
H H 0.21514885972549394 -0.2835714037368321 -0.7554664980265782 0.0
C C 0.2959358756314153 -0.03285333332376211 -0.9139383422546264 0.0
C C 0.17382108416147726 0.08867125305398307 -0.9269725194850723 0.0
C C 0.16588788572644014 -0.055692103486818634 -0.7709318028098823 0.0
C C 0.21987013790250373 -0.38303315525809084 -0.8651511576256988 0.0
C C 0.3940937462412463 -0.054984603693154624 -0.746620993898921 0.0
H H 0.36964484624124627 0.008045396306845393 -0.770839193898921 0.0
C C 0.4336632154107527 -0.0037530910333147933 -0.6940570382448209 0.0
H H 0.43557441541075276 0.09507690896668518 -0.6847151382448209 0.0
C C 0.46619985968004884 -0.09397127950616917 -0.6630231225143209 0.0
C C 0.4640487489577581 -0.2253514240165002 -0.6711018371974741 0.0
H H 0.4872799489577582 -0.2915214240165001 -0.646481837197474 0.0
C C 0.42307266237935476 -0.2850717605768419 -0.7227779463193569 0.0
H H 0.4203638623793548 -0.3830417605768419 -0.7343579463193568 0.0
C C 0.5704472182914129 0.14141257710210853 -0.5612586658188881 0.0
H H 0.580836118291413 0.23664257710210856 -0.5640367658188881 0.0
C C 0.535261925078868 0.09929753968505813 -0.605289857967456 0.0
H H 0.517890725078868 0.16392753968505813 -0.641469857967456 0.0
C C 0.512262936660982 -0.03812792768321917 -0.6106516955086138 0.0
C C 0.5437007555113192 -0.12263508284434906 -0.5502029670559098 0.0
H H 0.5336596555113192 -0.217605082844349 -0.5452711670559098 0.0
C C 0.5843277652027086 -0.075734008872026 -0.5000754595733152 0.0
H H 0.6021866652027085 -0.13790400887202597 -0.4630836595733152 0.0
