_cell_length_a 27.1013
_cell_length_b 9.27321
_cell_length_c 16.979215
_cell_angle_alpha 90.0
_cell_angle_beta 99.1565
_cell_angle_gamma 90.0
_symmetry_space_group_name_H-M         'P 1'
_symmetry_Int_Tables_number            1
loop_
_symmetry_equiv_pos_as_xyz
   'x, y, z'
                         
loop_
_atom_site_label
_atom_site_type_symbol
_atom_site_fract_x 
_atom_site_fract_y
_atom_site_fract_z
_atom_site_charge
Zn Zn -0.17134303679374893 0.783408644069522 -0.3415532213593563 0.0
Zn Zn -0.17591032857732203 0.39635541058704743 -0.5541803295273516 0.0
O O -0.23135210904790116 0.6562780349832724 -0.30508029391943575 0.0
O O -0.17944040041341913 0.6355631849179336 -0.4304801263428352 0.0
O O -0.20809815647179883 0.42545014730143427 -0.4532874693854393 0.0
O O -0.3047423804348289 0.27849695796282714 -0.39922577748190186 0.0
O O -0.3624297743012172 0.41624740321699233 -0.45953974095811656 0.0
O O -0.3136771675650709 0.4335459683984994 -0.2540108645762878 0.0
O O -0.36124121704134393 0.6168687589192045 -0.22155279108064652 0.0
O O -0.31693747566691505 0.9566422229748217 -0.3787735927326531 0.0
O O -0.24224753660165385 0.8868596117067161 -0.4040770377673278 0.0
N N -0.11119406832469358 0.6918578439664995 -0.2660612992735242 0.0
N N 0.09866155264540225 0.42713962122173554 -0.007624973403733928 0.0
C C -0.2445834437812778 0.5306773603525481 -0.35496734812702607 0.0
H H -0.24004444378127782 0.44315736035254805 -0.3222659481270261 0.0
C C -0.2932311640066866 0.5438381334383441 -0.3929909490938607 0.0
H H -0.29357216400668656 0.6009081334383441 -0.4416895490938607 0.0
C C -0.320373683183325 0.6303048547650739 -0.33694005515793096 0.0
H H -0.349044683183325 0.6830748547650739 -0.36549865515793095 0.0
C C -0.2788111789334003 0.7457240223408326 -0.31272837559986516 0.0
H H -0.28190217893340025 0.7793040223408327 -0.25897697559986516 0.0
C C -0.20548522226817648 0.5222983900517733 -0.42044244375945294 0.0
C C -0.3264680946010252 0.40231501591084784 -0.4178006565859982 0.0
C C -0.33670055214095207 0.5602206412646163 -0.2602740544131593 0.0
C C -0.27859632343273394 0.8748861807085818 -0.3618404721727851 0.0
C C -0.11211677677259331 0.5590987073897621 -0.24787127482873278 0.0
H H -0.1365656767725933 0.49606870738976216 -0.2720894748287328 0.0
C C -0.06519564428946813 0.49535146058989077 -0.20374154031898503 0.0
H H -0.06328444428946813 0.3965214605898907 -0.19439964031898507 0.0
C C -0.029390057470972186 0.6026780850513104 -0.16461101738090148 0.0
C C -0.03805076155261925 0.7483408906091176 -0.18156868836254944 0.0
H H -0.014819561552619251 0.8145108906091175 -0.15694868836254944 0.0
C C -0.07653034155463939 0.7773428812928528 -0.22394035400019288 0.0
H H -0.07923914155463939 0.8753128812928529 -0.2355203540001929 0.0
C C 0.07543853429006453 0.34254667957961077 -0.04988512555323575 0.0
H H 0.08582743429006454 0.2473166795796107 -0.05266322555323574 0.0
C C 0.035808654435751604 0.39636294237568187 -0.10828475766919524 0.0
H H 0.018437454435751604 0.3317329423756819 -0.14446475766919523 0.0
C C 0.015321590059192133 0.5439055821855607 -0.10240175367986194 0.0
C C 0.04306995781611395 0.634170683778215 -0.04751942986870745 0.0
H H 0.033028857816113956 0.729140683778215 -0.042587629868707455 0.0
C C 0.0813174281916635 0.5787024833545384 0.004918261649093357 0.0
H H 0.09917632819166351 0.6408724833545385 0.041910061649093354 0.0
Zn Zn 0.1687696725832318 0.7962055769092592 0.8350825323789299 0.0
Zn Zn 0.1690739647777104 0.3916192241033775 1.053651029291522 0.0
O O 0.23584376806503987 0.6584831359014837 0.8032989662436911 0.0
O O 0.1764390807026105 0.6220999420489898 0.9257681630393242 0.0
O O 0.20772525736483224 0.402206626672639 0.9555388546551308 0.0
O O 0.3012668165566469 0.29152701386645585 0.8939468242810517 0.0
O O 0.36214726387176355 0.41575424258508675 0.9650932917514047 0.0
O O 0.3217599325990713 0.44158127264885727 0.7538272241250833 0.0
O O 0.3652941734630766 0.6212108644909216 0.7240004695126446 0.0
O O 0.3163537790418844 0.9365103189843772 0.8767254815941579 0.0
O O 0.23772429810683865 0.8976189593568613 0.9011119370505959 0.0
N N 0.11672408750105262 0.701759828520641 0.768740481212527 0.0
N N -0.09591520925933181 0.4406709465689565 0.5075169468280342 0.0
C C 0.24543891973318027 0.534656896787033 0.864282120466928 0.0
H H 0.24089991973318026 0.44713689678703294 0.831580720466928 0.0
C C 0.29800319959792226 0.5471474931384785 0.8984854245955828 0.0
H H 0.2983441995979223 0.6042174931384785 0.9471840245955828 0.0
C C 0.3170663709637205 0.640795519227228 0.8428543174592011 0.0
H H 0.3457373709637205 0.693565519227228 0.8714129174592011 0.0
C C 0.2806740824511551 0.7307101188028868 0.8154786069607923 0.0
H H 0.2837650824511551 0.764290118802887 0.7617272069607921 0.0
C C 0.20989111071628047 0.526357059061978 0.9245939801771377 0.0
C C 0.3233281968969438 0.4044951613467281 0.9219872221944011 0.0
C C 0.33881355392957035 0.554593276458943 0.7723398924906572 0.0
C C 0.2799134500689303 0.8815438360839093 0.8688388510437972 0.0
C C 0.10984361255904142 0.5650772465437072 0.7462778349640218 0.0
H H 0.1342925125590414 0.5020472465437071 0.7704960349640217 0.0
C C 0.07027629976341443 0.5045975776752024 0.7045073440142245 0.0
H H 0.06836509976341444 0.4057675776752025 0.6951654440142245 0.0
C C 0.02624437214902872 0.596292457669464 0.6525715897798181 0.0
C C 0.035464611272302125 0.7348291720755923 0.6851986958336383 0.0
H H 0.01223341127230213 0.8009991720755922 0.6605786958336383 0.0
C C 0.07545656314012356 0.7897823054996237 0.7264378159533847 0.0
H H 0.07816536314012354 0.887752305499624 0.7380178159533847 0.0
C C -0.07177371664483678 0.33923418661849614 0.5624436132460274 0.0
H H -0.0821626166448368 0.24400418661849607 0.5652217132460275 0.0
C C -0.02831985091920033 0.3865668591277572 0.6045507609165117 0.0
H H -0.010948650919200319 0.32193685912775716 0.6407307609165117 0.0
C C -0.017439927126308218 0.5285506416904973 0.6043700628600136 0.0
C C -0.042565703612573225 0.6301797219829193 0.5495390397083395 0.0
H H -0.03252460361257323 0.7251497219829194 0.5446072397083396 0.0
C C -0.08439423293817476 0.5614685335707013 0.4972303241095511 0.0
H H -0.10225313293817477 0.6236385335707012 0.46023852410955113 0.0
Zn Zn 0.32565714821275604 1.308857258892919 -0.34783259776356384 0.0
Zn Zn 0.3269902154869089 0.8990493919844348 -0.5520500318801062 0.0
O O 0.26425715702586383 1.1635428057934467 -0.3118427456611997 0.0
O O 0.3259864023726458 1.1330998839955562 -0.4192295892169483 0.0
O O 0.2942799506744098 0.9057984927880274 -0.4507434670246176 0.0
O O 0.19850014241671354 0.7871850995676624 -0.3946331831017574 0.0
O O 0.13960227299292072 0.9055471249877728 -0.465534818750388 0.0
O O 0.1818076146933243 0.9349499751273174 -0.25782875407308353 0.0
O O 0.13598078295672214 1.1291897685291352 -0.23180666409306108 0.0
O O 0.17897392595610906 1.4415635805354896 -0.37887182947181 0.0
O O 0.25773192429895886 1.4011334166325307 -0.3991770662363736 0.0
N N 0.3923460677019251 1.1890723280505275 -0.2638181419714709 0.0
N N 0.5966360946327334 0.9292073188438289 -0.007332029078642077 0.0
C C 0.2606792044323453 1.0285779609404158 -0.35715278005217005 0.0
H H 0.26521820443234534 0.9410579609404155 -0.32445138005217006 0.0
C C 0.20231927866345456 1.0389415117931118 -0.39677675191731354 0.0
H H 0.20197827866345455 1.0960115117931117 -0.4454753519173136 0.0
C C 0.17925643432512883 1.1440018187114251 -0.3335128746908154 0.0
H H 0.15058543432512883 1.1967718187114254 -0.3620714746908154 0.0
C C 0.2193228795743653 1.2457282519223696 -0.305320876788377 0.0
H H 0.21623187957436532 1.2793082519223697 -0.251569476788377 0.0
C C 0.28882225194367994 1.0328992392370913 -0.4228452107399114 0.0
C C 0.17332797892825746 0.9036558506763311 -0.42549513292821894 0.0
C C 0.16456489920227016 1.0602245058680932 -0.27051663008344823 0.0
C C 0.2203921171940997 1.37258293691966 -0.36666232240037333 0.0
C C 0.3891227560113789 1.0537102401988634 -0.25112277318197573 0.0
H H 0.364673856011379 0.9906802401988635 -0.27534097318197576 0.0
C C 0.43555726262621464 0.9930425805844577 -0.2002940458699014 0.0
H H 0.43746846262621464 0.8942125805844577 -0.19095214586990145 0.0
C C 0.47215392257505706 1.0943295521263412 -0.1544694648379586 0.0
C C 0.4601731481173587 1.2309806898375966 -0.1771275247029329 0.0
H H 0.4834043481173586 1.2971506898375966 -0.15250752470293288 0.0
C C 0.41936506249885336 1.2907616555816472 -0.23490996400737865 0.0
H H 0.41665626249885335 1.3887316555816474 -0.24648996400737866 0.0
C C 0.574808828391091 0.8531857869576605 -0.05406159207619149 0.0
H H 0.5851977283910911 0.7579557869576604 -0.05683969207619149 0.0
C C 0.5334787679223941 0.891826090552607 -0.10937977832690007 0.0
H H 0.5161075679223942 0.8271960905526069 -0.14555977832690006 0.0
C C 0.5128113430347605 1.0296098498109651 -0.11163337345349579 0.0
C C 0.5455491814202916 1.1175247761122455 -0.04585145607185603 0.0
H H 0.5355080814202916 1.2124947761122455 -0.040919656071856034 0.0
C C 0.5867816576288822 1.083411471179966 0.005318339348624555 0.0
H H 0.6046405576288822 1.145581471179966 0.042310139348624556 0.0
Zn Zn 0.6755578256203019 1.303621292471215 0.8479883677385822 0.0
Zn Zn 0.6720022983955326 0.8876279681960548 1.0490259776113002 0.0
O O 0.7336575079768792 1.1703366430977253 0.8072305083448718 0.0
O O 0.6808570898738087 1.1309747354239814 0.9324567330411411 0.0
O O 0.7054766967537481 0.914851390063293 0.958027016999628 0.0
O O 0.8003943780583292 0.7832879120582678 0.8948391968823106 0.0
O O 0.8638748546091362 0.9099447205900787 0.9666993982595458 0.0
O O 0.8177485763702026 0.9251126038198528 0.756671052279983 0.0
O O 0.8682716583480959 1.126158941483881 0.7296964724962353 0.0
O O 0.8184243381284355 1.4363639496418803 0.8812616088665508 0.0
O O 0.7421339254471897 1.4008272788528482 0.9040774955983273 0.0
N N 0.6114433411839145 1.1889869146301228 0.7591496403538225 0.0
N N 0.40049626478469724 0.9476413875977066 0.5100431793437225 0.0
C C 0.7394582049769047 1.0329606080504043 0.854192636033406 0.0
H H 0.7349192049769048 0.9454406080504041 0.821491236033406 0.0
C C 0.7946774434873753 1.0455727214910218 0.8917671258066896 0.0
H H 0.795018443487375 1.1026427214910217 0.9404657258066896 0.0
C C 0.820951589795505 1.1257133977401168 0.8353458580530709 0.0
H H 0.8496225897955049 1.1784833977401168 0.8639044580530709 0.0
C C 0.779282870133619 1.2405493982249862 0.8047674644744054 0.0
H H 0.7823738701336189 1.2741293982249862 0.7510160644744052 0.0
C C 0.7038600308076871 1.0375359704475373 0.9172876529701132 0.0
C C 0.8248601029033796 0.892372375129492 0.9282142345438561 0.0
C C 0.8377871918022813 1.0544766420391734 0.7641292985881961 0.0
C C 0.7814050315018711 1.3678276196484085 0.8690094638934184 0.0
C C 0.6088292018565302 1.0590283282997615 0.7537404583999191 0.0
H H 0.6332781018565303 0.9959983282997612 0.7779586583999191 0.0
C C 0.566195722425182 1.006191662447999 0.7013248433347399 0.0
H H 0.5642845224251819 0.9073616624479988 0.69198294333474 0.0
C C 0.526175009760165 1.0863656030916986 0.6625637511464765 0.0
C C 0.5355211694979439 1.2357198178707156 0.6789621710719554 0.0
H H 0.5122899694979439 1.3018898178707154 0.6543421710719554 0.0
C C 0.574924730375743 1.2777763370476503 0.7330385479679973 0.0
H H 0.577633530375743 1.3757463370476506 0.7446185479679972 0.0
C C 0.4295703657235687 0.8440659492608197 0.5526134663928287 0.0
H H 0.4191814657235687 0.7488359492608196 0.5553915663928287 0.0
C C 0.4727802477790051 0.892025611744161 0.6084543089295783 0.0
H H 0.4901514477790051 0.8273956117441611 0.6446343089295783 0.0
C C 0.48852186732218006 1.0361809061232312 0.5990199558962526 0.0
C C 0.4619962040318524 1.1242133150627194 0.5509317793195364 0.0
H H 0.47203730403185234 1.2191833150627194 0.5459999793195366 0.0
C C 0.41724431194242 1.081769699780277 0.5070143436908331 0.0
H H 0.39938541194242 1.1439396997802769 0.47002254369083313 0.0
Zn Zn 0.17352584592056194 -0.8049904392234545 0.33959421380308086 0.0
Zn Zn 0.16732705885067783 -0.39429231744177884 0.5504853608206145 0.0
O O 0.233279049080392 -0.66984627246205 0.30836707743741615 0.0
O O 0.17852512427054748 -0.6431062074420967 0.42438154208765394 0.0
O O 0.20713272520093556 -0.4164293390585569 0.4548355835469583 0.0
O O 0.3038668393001258 -0.29153180753981534 0.4042093971700221 0.0
O O 0.36346133822463744 -0.41852566100832567 0.47108194779954554 0.0
O O 0.31522495110496995 -0.4238819982955037 0.2478869100246564 0.0
O O 0.36235614084579193 -0.6178862590387072 0.23167618486276637 0.0
O O 0.3172805368233477 -0.9463633100407894 0.3757563880540228 0.0
O O 0.24363165324232353 -0.8919193362565666 0.39850589577098233 0.0
N N 0.11015791139656128 -0.6983453871640278 0.262036594597279 0.0
N N -0.10166154085228732 -0.4361456882886573 0.007327916558276227 0.0
C C 0.24330109173376654 -0.5369453092936919 0.35938593830699533 0.0
H H 0.23876209173376656 -0.4494253092936919 0.32668453830699534 0.0
C C 0.3003164748979079 -0.550158098184013 0.39550960421463827 0.0
H H 0.30065747489790795 -0.607228098184013 0.44420820421463825 0.0
C C 0.3173370143815021 -0.6294435733409015 0.34128463445920193 0.0
H H 0.346008014381502 -0.6822135733409015 0.3698432344592019 0.0
C C 0.27417399850366253 -0.7393615366769449 0.30337005299339764 0.0
H H 0.2772649985036625 -0.7729415366769451 0.24961865299339764 0.0
C C 0.20894635596286593 -0.5219213503415601 0.4191230318708949 0.0
C C 0.3239360480099301 -0.4026559102736909 0.4264039644329837 0.0
C C 0.3370413096015592 -0.5478747304963026 0.26845353984504683 0.0
C C 0.2725639104688799 -0.8699114138716294 0.3622589579034369 0.0
C C 0.10860715106910868 -0.5695152986472727 0.24678066546161612 0.0
H H 0.13305605106910867 -0.5064852986472727 0.2709988654616161 0.0
C C 0.06618102573364813 -0.48927676930221276 0.19524979615801824 0.0
H H 0.06426982573364813 -0.3904467693022127 0.18590789615801828 0.0
C C 0.03417345910219769 -0.5905076777751558 0.16675005207632132 0.0
C C 0.03997666249857215 -0.7378672813292756 0.17488352041324448 0.0
H H 0.016745462498572155 -0.8040372813292755 0.15026352041324448 0.0
C C 0.07751531431435844 -0.7809306564268372 0.2300381247710138 0.0
H H 0.08022411431435844 -0.8789006564268373 0.24161812477101377 0.0
C C -0.07722742303143457 -0.35596416379686285 0.06042582542923502 0.0
H H -0.08761632303143459 -0.26073416379686276 0.063203925429235 0.0
C C -0.029699842020061377 -0.39899003558646945 0.11155925845831814 0.0
H H -0.012328642020061372 -0.3343600355864695 0.14773925845831815 0.0
C C -0.01911203348488906 -0.5270088866308446 0.10357907120323026 0.0
C C -0.038952113899957966 -0.6236889494396995 0.05381980817166421 0.0
H H -0.028911013899957958 -0.7186589494396995 0.048888008171664214 0.0
C C -0.08911549447175547 -0.5729671871767471 -0.0026972690176957047 0.0
H H -0.10697439447175547 -0.6351371871767472 -0.039689069017695706 0.0
Zn Zn -0.1730340978923598 -0.8068072544674103 -0.8368004726198424 0.0
Zn Zn -0.17425301039181923 -0.39593249239409994 -1.0434161476899275 0.0
O O -0.23483564716509578 -0.6470483520765691 -0.8132611009419277 0.0
O O -0.1750866599024786 -0.6281956128805111 -0.917113029817225 0.0
O O -0.21356683893285963 -0.41382194500469 -0.960680540799691 0.0
O O -0.30627710482359305 -0.27566515501017447 -0.9051654990323612 0.0
O O -0.3677237626523572 -0.422917768224137 -0.9702904403268169 0.0
O O -0.3138526223650211 -0.4339982106555665 -0.7475547373586358 0.0
O O -0.3682002563405673 -0.6252417764938767 -0.7347949833271581 0.0
O O -0.31461748905587716 -0.9538110695982174 -0.8762097124851735 0.0
O O -0.24220564989980645 -0.8966688312357357 -0.8982957877706106 0.0
N N -0.11352911769160583 -0.6899321175714584 -0.770931875072039 0.0
N N 0.10363119338573665 -0.44562355450560215 -0.50008881423002 0.0
C C -0.24073422867246327 -0.5417650211538922 -0.8539167756418921 0.0
H H -0.23619522867246323 -0.45424502115389226 -0.8212153756418921 0.0
C C -0.295484533608188 -0.5369793203710053 -0.9032438247006935 0.0
H H -0.295825533608188 -0.5940493203710052 -0.9519424247006936 0.0
C C -0.3218220536711378 -0.6467175163798118 -0.8424292905764458 0.0
H H -0.35049305367113776 -0.6994875163798117 -0.8709878905764458 0.0
C C -0.28241163751779047 -0.7463657752174411 -0.8112771675057364 0.0
H H -0.28550263751779054 -0.7799457752174412 -0.7575257675057362 0.0
C C -0.21165323135437192 -0.5301744132251053 -0.9198284796811388 0.0
C C -0.32147291398409406 -0.40992791038672977 -0.9162976834064679 0.0
C C -0.3347759128610124 -0.5626328416198161 -0.7707013842496898 0.0
C C -0.2752660757180198 -0.8634868044214015 -0.8671615430328227 0.0
C C -0.10811186378067265 -0.5522530768745454 -0.7522408046952551 0.0
H H -0.13256076378067264 -0.48922307687454536 -0.7764590046952551 0.0
C C -0.06968874112336296 -0.490497240995339 -0.6950860558572688 0.0
H H -0.06777754112336296 -0.39166724099533895 -0.6857441558572689 0.0
C C -0.02468707445516892 -0.5897541691549731 -0.6588410549440047 0.0
C C -0.032117013156424595 -0.7313122078354372 -0.6783145311965871 0.0
H H -0.008885813156424597 -0.7974822078354371 -0.653694531196587 0.0
C C -0.08035024902848661 -0.7791249656908177 -0.7348471289029347 0.0
H H -0.0830590490284866 -0.8770949656908178 -0.7464271289029346 0.0
C C 0.07538302893318896 -0.35823107612162897 -0.5622494675805643 0.0
H H 0.08577192893318897 -0.2630010761216289 -0.5650275675805643 0.0
C C 0.03018644944662478 -0.3952104260905121 -0.6088698010211911 0.0
H H 0.012815249446624766 -0.3305804260905121 -0.6450498010211911 0.0
C C 0.014704350744129199 -0.5395252647834544 -0.6047235402258325 0.0
C C 0.04477282241225924 -0.6203194567245223 -0.5418066600430363 0.0
H H 0.03473172241225924 -0.7152894567245223 -0.5368748600430365 0.0
C C 0.0812195098300009 -0.5789433827898258 -0.4993438504601283 0.0
H H 0.09907840983000091 -0.6411133827898258 -0.46235205046012834 0.0
Zn Zn 0.6738523837356789 -0.2932466443938097 0.34193727315437206 0.0
Zn Zn 0.6694805436484509 0.10135083638311711 0.5455066099281524 0.0
O O 0.7346858109880826 -0.14502930893702748 0.30662190462922545 0.0
O O 0.675734166148855 -0.1293948049044808 0.43052827196092586 0.0
O O 0.7032979963018435 0.08058727576692143 0.45619557602929733 0.0
O O 0.8044867360239042 0.2260912031381316 0.3974289363697206 0.0
O O 0.8612834872836904 0.0838008122868211 0.469534263232333 0.0
O O 0.8220685022978204 0.07586309856414564 0.25610045587494257 0.0
O O 0.8626611398795472 -0.12891561486891873 0.2226731615357812 0.0
O O 0.8172713774547623 -0.4422598900420584 0.3663338977995898 0.0
O O 0.7422888884317582 -0.4004205478791178 0.39866935635724304 0.0
N N 0.6119104922311153 -0.19978882708364173 0.2603047537296886 0.0
N N 0.4037200608489104 0.0601331264691783 0.012313446733527683 0.0
C C 0.7419328603574423 -0.024378410039178202 0.36515136627178985 0.0
H H 0.7373938603574423 0.06314158996082184 0.33244996627178985 0.0
C C 0.7995109049320717 -0.041622375150025426 0.39982423329138556 0.0
H H 0.7998519049320715 -0.0986923751500254 0.44852283329138554 0.0
C C 0.8159280712387091 -0.1384303397372796 0.3358275615735449 0.0
H H 0.8445990712387091 -0.1912003397372796 0.36438616157354486 0.0
C C 0.7765643330890161 -0.23425281476169607 0.31308382776908283 0.0
H H 0.779655333089016 -0.2678328147616961 0.25933242776908283 0.0
C C 0.7012799992104617 -0.02937279350992476 0.4208310198813717 0.0
C C 0.8273477844907184 0.09185056793603172 0.4248036877130242 0.0
C C 0.8370119835374413 -0.05611787069472334 0.27526977492172183 0.0
C C 0.7774600308072749 -0.35996969518927646 0.36492928504747235 0.0
C C 0.6070030243766426 -0.04488279548899769 0.24414874001093223 0.0
H H 0.6314519243766425 0.01814720451100233 0.26836694001093225 0.0
C C 0.5705447130741489 0.003209653901723991 0.1962898140834026 0.0
H H 0.5686335130741488 0.10203965390172397 0.1869479140834026 0.0
C C 0.5334577162891854 -0.08743233259486102 0.156364300730747 0.0
C C 0.5339570192379561 -0.23462694033119194 0.1788231277380708 0.0
H H 0.5107258192379561 -0.30079694033119186 0.1542031277380708 0.0
C C 0.5742832666194544 -0.29078974699930343 0.2358437737708013 0.0
H H 0.5769920666194545 -0.3887597469993035 0.2474237737708013 0.0
C C 0.4275576378129565 0.15695778278229108 0.05243526584160145 0.0
H H 0.41716873781295655 0.25218778278229115 0.05521336584160145 0.0
C C 0.4661755128272078 0.10953423975060086 0.10696708841856353 0.0
H H 0.4835467128272078 0.17416423975060083 0.14314708841856355 0.0
C C 0.4848114145020024 -0.023311735976542007 0.10025344226772201 0.0
C C 0.45725321214795833 -0.1278149587176917 0.04822972293098367 0.0
H H 0.46729431214795836 -0.22278495871769172 0.043297922930983675 0.0
C C 0.41582333430315227 -0.0720196200891504 0.008211013856697891 0.0
H H 0.3979644343031523 -0.13418962008915034 -0.02878078614330211 0.0
Zn Zn 0.328598927422322 -0.30388997668633455 -0.8338652569124253 0.0
Zn Zn 0.3319081375002695 0.09845710480470089 -1.0434783249613881 0.0
O O 0.2653151853924694 -0.14634888500596174 -0.8068837907909786 0.0
O O 0.3232238628980713 -0.13127234688287545 -0.9198126103753973 0.0
O O 0.29535738622882907 0.08193394073881444 -0.9536694057902948 0.0
O O 0.1945620505420972 0.2069614302810166 -0.8997729778949584 0.0
O O 0.1359071739786448 0.09049833153413324 -0.9637873656358135 0.0
O O 0.1831418307077266 0.05960677468402173 -0.7507226240310343 0.0
O O 0.13643435398710996 -0.11983380166040009 -0.7279314137089616 0.0
O O 0.18497902171332484 -0.4405368151399103 -0.8762771259523683 0.0
O O 0.25863984940241763 -0.38723687162499937 -0.8956593537369235 0.0
N N 0.39078227908994484 -0.1988475978064022 -0.7714393721103252 0.0
N N 0.604409297392063 0.052961740629552626 -0.5013852709130687 0.0
C C 0.261800966262188 -0.023147042567268735 -0.8543347881339703 0.0
H H 0.266339966262188 0.0643729574327313 -0.8216333881339704 0.0
C C 0.20346333752391355 -0.04019832035373789 -0.896053166773891 0.0
H H 0.20312233752391354 -0.09726832035373784 -0.9447517667738909 0.0
C C 0.18420508232998026 -0.14115480309631995 -0.8400803840506219 0.0
H H 0.15553408232998026 -0.19392480309631993 -0.8686389840506219 0.0
C C 0.22294481476096528 -0.2512486827373877 -0.8051821093414772 0.0
H H 0.21985381476096535 -0.28482868273738776 -0.751430709341477 0.0
C C 0.2937071249964662 -0.016845783837697904 -0.918040913063644 0.0
C C 0.17582287652139925 0.09961560821859987 -0.9262796794757325 0.0
C C 0.16173731654364848 -0.06053844599760165 -0.7655882840316168 0.0
C C 0.21999181176749694 -0.38087854238106406 -0.8715840805771269 0.0
C C 0.3906399980335495 -0.054875754760597244 -0.741981492712465 0.0
H H 0.36619109803354943 0.008154245239402768 -0.766199692712465 0.0
C C 0.4333727098030491 -0.002471522170964118 -0.7055395192556659 0.0
H H 0.435283909803049 0.09635847782903587 -0.6961976192556659 0.0
C C 0.46533767927971625 -0.08568653343694485 -0.6614717710382745 0.0
C C 0.4644847673953868 -0.23125590948419933 -0.6771516907522319 0.0
H H 0.4877159673953869 -0.2974259094841993 -0.6525316907522318 0.0
C C 0.4227788343510036 -0.2817796159292558 -0.7343771574079424 0.0
H H 0.42007003435100365 -0.3797496159292559 -0.7459571574079423 0.0
C C 0.5753120908676363 0.1610793780927597 -0.5606771304323065 0.0
H H 0.5857009908676364 0.25630937809275967 -0.5634552304323065 0.0
C C 0.5288117839379632 0.09402613480529569 -0.6072146176133145 0.0
H H 0.5114405839379633 0.15865613480529567 -0.6433946176133145 0.0
C C 0.5113655583739573 -0.03225658790958552 -0.6037481579200614 0.0
C C 0.5409282251193045 -0.12971693683512703 -0.5509182675150183 0.0
H H 0.5308871251193045 -0.224686936835127 -0.5459864675150183 0.0
C C 0.5829300096369494 -0.08085813481214066 -0.5079163574532818 0.0
H H 0.6007889096369493 -0.14302813481214063 -0.4709245574532819 0.0
