_cell_length_a 27.1013
_cell_length_b 9.27321
_cell_length_c 16.979215
_cell_angle_alpha 90.0
_cell_angle_beta 99.1565
_cell_angle_gamma 90.0
_symmetry_space_group_name_H-M         'P 1'
_symmetry_Int_Tables_number            1
loop_
_symmetry_equiv_pos_as_xyz
   'x, y, z'
                         
loop_
_atom_site_label
_atom_site_type_symbol
_atom_site_fract_x 
_atom_site_fract_y
_atom_site_fract_z
_atom_site_charge
Zn Zn -0.1705708427689341 0.8041789761571269 -0.3447066037205689 0.0
Zn Zn -0.17480593351057444 0.3849357915790013 -0.5445075229316905 0.0
O O -0.23551992860420123 0.6630336566061239 -0.30866420463374694 0.0
O O -0.18003395134372766 0.6380326450502959 -0.42548853306155726 0.0
O O -0.20675573611222867 0.42827580304909396 -0.4592892434646393 0.0
O O -0.3015087750960903 0.27463339332671366 -0.3995604905982879 0.0
O O -0.36668609634741656 0.40331449351494786 -0.46624599550496376 0.0
O O -0.32046977212832073 0.43038030867751265 -0.2575295423902611 0.0
O O -0.36335100361334344 0.6217433542254288 -0.23235406591628632 0.0
O O -0.31710519483014615 0.9408052368261829 -0.3788450903258011 0.0
O O -0.24279074886822577 0.8859130015671364 -0.3926955699056934 0.0
N N -0.11152578037857512 0.6849128157592881 -0.2667626459435075 0.0
N N 0.10481996837503536 0.4436194658922496 -0.005359854711222418 0.0
C C -0.24587904625398158 0.5300291760288073 -0.3561997627839093 0.0
H H -0.24134004625398162 0.44250917602880735 -0.3234983627839093 0.0
C C -0.2943313116774983 0.5465746325983238 -0.39822418886824734 0.0
H H -0.29467231167749836 0.6036446325983239 -0.4469227888682474 0.0
C C -0.3221296426238724 0.6470207442711063 -0.3388524168303737 0.0
H H -0.3508006426238723 0.6997907442711062 -0.36741101683037364 0.0
C C -0.2793783138338866 0.7341093245239039 -0.3075217240385485 0.0
H H -0.28246931383388657 0.7676893245239039 -0.2537703240385485 0.0
C C -0.2069492966457098 0.5342485220774508 -0.4237859940315136 0.0
C C -0.32645425211998974 0.39155940843588094 -0.41936625497857216 0.0
C C -0.33555552309891395 0.5551031537944032 -0.26805134358935756 0.0
C C -0.2771669564038862 0.8822966732384431 -0.36884344458350027 0.0
C C -0.10608580576958664 0.5437190844042098 -0.24482744266058543 0.0
H H -0.13053470576958662 0.4806890844042098 -0.26904564266058545 0.0
C C -0.06873050973969416 0.5072094498214574 -0.20076240059020106 0.0
H H -0.06681930973969415 0.40837944982145735 -0.19142050059020108 0.0
C C -0.033972245934722506 0.5922638701480013 -0.15754461429274985 0.0
C C -0.03231558548633596 0.7331180672390695 -0.17116276810120148 0.0
H H -0.009084385486335963 0.7992880672390694 -0.14654276810120145 0.0
C C -0.0809595846872411 0.7814431817066472 -0.22967475155481976 0.0
H H -0.0836683846872411 0.8794131817066473 -0.2412547515548197 0.0
C C 0.07574282191818851 0.3611988572538239 -0.06081804131762554 0.0
H H 0.08613172191818853 0.26596885725382385 -0.06359614131762555 0.0
C C 0.03291519785995989 0.40414527628236985 -0.11356537400188019 0.0
H H 0.015543997859959881 0.3395152762823699 -0.14974537400188018 0.0
C C 0.01828380481453771 0.5331052380477616 -0.10143662694528648 0.0
C C 0.03835972838365322 0.6370713146279048 -0.05040152616213116 0.0
H H 0.028318628383653222 0.7320413146279049 -0.04546972616213116 0.0
C C 0.08538757130450535 0.5822578497843913 -0.006458609315427118 0.0
H H 0.10324647130450536 0.6444278497843914 0.030533190684572883 0.0
Zn Zn 0.17115205340605436 0.7955267514163815 0.8449332451309107 0.0
Zn Zn 0.17008528142980198 0.40282381660482364 1.0460841313458389 0.0
O O 0.23347769150375602 0.6584637498362843 0.8143722353444575 0.0
O O 0.17676019903739884 0.6363536659335783 0.9276887254206334 0.0
O O 0.2072107583351917 0.4133188993206477 0.9555252156301268 0.0
O O 0.30328890015286636 0.29488709377718303 0.8968304538984909 0.0
O O 0.362678916377615 0.4040228366055315 0.9714884681379847 0.0
O O 0.32092890485408865 0.4288001159885142 0.7525997405826169 0.0
O O 0.3610432601487328 0.6193340478354991 0.7289584508924745 0.0
O O 0.32140655796128 0.9398088806080488 0.875734654057707 0.0
O O 0.2418539015214548 0.9062894234966457 0.8940386812082058 0.0
N N 0.1119575208866291 0.6971949733755948 0.7655092759231498 0.0
N N -0.09912673892332508 0.424860029013783 0.5072465944833163 0.0
C C 0.23714868868662214 0.5308710712485459 0.858592776220921 0.0
H H 0.23260968868662216 0.4433510712485459 0.825891376220921 0.0
C C 0.29444568961911943 0.5371496043851873 0.8943773809938023 0.0
H H 0.2947866896191194 0.5942196043851873 0.9430759809938022 0.0
C C 0.3214282368831191 0.6430301811823692 0.8344512059760758 0.0
H H 0.35009923688311917 0.6958001811823692 0.8630098059760758 0.0
C C 0.2797848719398556 0.7343015003145531 0.8097784936391751 0.0
H H 0.2828758719398556 0.7678815003145532 0.7560270936391749 0.0
C C 0.20653979173241602 0.5236924525406674 0.9138458457311602 0.0
C C 0.3267611396343515 0.4129837190983676 0.9228437105461667 0.0
C C 0.3341307503176367 0.5518801251400537 0.7665171705419257 0.0
C C 0.27906881768770986 0.8757350460733061 0.8615461277794152 0.0
C C 0.10819059286606092 0.5641923829484334 0.7515274147261427 0.0
H H 0.13263949286606092 0.5011623829484334 0.7757456147261427 0.0
C C 0.068229413650564 0.5051115684617583 0.698461423931093 0.0
H H 0.06631821365056399 0.4062815684617584 0.689119523931093 0.0
C C 0.03373808766502981 0.5867486532939585 0.6560562414818745 0.0
C C 0.039033033371514335 0.7342262798932805 0.6742471373800369 0.0
H H 0.01580183337151434 0.8003962798932804 0.6496271373800369 0.0
C C 0.07898824594679363 0.791456618578626 0.7275860309605062 0.0
H H 0.08169704594679363 0.8894266185786261 0.7391660309605063 0.0
C C -0.07689766432308164 0.3426416071531609 0.5526721892196288 0.0
H H -0.08728656432308167 0.2474116071531608 0.5554502892196288 0.0
C C -0.030609021375407875 0.40785293589555777 0.6077361451836499 0.0
H H -0.013237821375407875 0.3432229358955578 0.6439161451836499 0.0
C C -0.011819816750755515 0.5361081285033268 0.6037596243727357 0.0
C C -0.042263579286314475 0.6401462135801667 0.5466833996289936 0.0
H H -0.032222479286314464 0.7351162135801668 0.5417515996289938 0.0
C C -0.08156780710086581 0.5714504919835536 0.4989588631582325 0.0
H H -0.09942670710086578 0.6336204919835535 0.46196706315823266 0.0
Zn Zn 0.3250423911418572 1.299178600015742 -0.33542122869261926 0.0
Zn Zn 0.3254526895453063 0.8851573002159081 -0.5550076761465363 0.0
O O 0.2685134563396899 1.1530155556594628 -0.30645640821648706 0.0
O O 0.3237895475155708 1.1293313617896397 -0.4203415777835741 0.0
O O 0.2898866131591641 0.92225419302431 -0.4652348301039127 0.0
O O 0.1967673578171055 0.7851885314423188 -0.4068543976535066 0.0
O O 0.13457082970606785 0.9181511848402572 -0.4636027803586394 0.0
O O 0.18328400676423723 0.9266389144047809 -0.25823727067339974 0.0
O O 0.13453681904526799 1.1313305118802903 -0.2323537013115318 0.0
O O 0.17762854411352635 1.4407136095627242 -0.37306533233855765 0.0
O O 0.26360379981797427 1.3979535079387586 -0.4031204653140896 0.0
N N 0.3898803492784603 1.1998000605201182 -0.26554877951814043 0.0
N N 0.6025352289389162 0.9327063923270836 0.0008028670384216572 0.0
C C 0.25966837707576856 1.0265677905411583 -0.3617302080281158 0.0
H H 0.2642073770757685 0.9390477905411581 -0.32902880802811585 0.0
C C 0.19967798166734113 1.0468291084473087 -0.40002186499836523 0.0
H H 0.19933698166734112 1.1038991084473087 -0.4487204649983652 0.0
C C 0.1796093189634536 1.1419912558447494 -0.3346618675727525 0.0
H H 0.1509383189634536 1.1947612558447498 -0.3632204675727525 0.0
C C 0.22234349402866668 1.243606328451116 -0.30888906065163113 0.0
H H 0.2192524940286667 1.277186328451116 -0.2551376606516311 0.0
C C 0.29322435998569574 1.0211205490018025 -0.4244607416845362 0.0
C C 0.1767179494290079 0.891348946813291 -0.424384666480421 0.0
C C 0.16401221603930813 1.0591812876448639 -0.2608704159799372 0.0
C C 0.219207746190047 1.3803345511380727 -0.3661833574851309 0.0
C C 0.39094133670466324 1.0543430493564376 -0.2566312348057371 0.0
H H 0.3664924367046633 0.9913130493564376 -0.2808494348057371 0.0
C C 0.42923635645541874 1.003729213056283 -0.20257077291225647 0.0
H H 0.4311475564554187 0.904899213056283 -0.1932288729122565 0.0
C C 0.46739054811433267 1.0845123983774239 -0.15754129384565604 0.0
C C 0.46305529550241326 1.2231215959620942 -0.176466388702507 0.0
H H 0.48628649550241315 1.289291595962094 -0.151846388702507 0.0
C C 0.42379556359298964 1.2815632657381217 -0.2293216483400844 0.0
H H 0.42108676359298963 1.3795332657381218 -0.24090164834008435 0.0
C C 0.5708615680910263 0.8579414593547048 -0.05535422756904869 0.0
H H 0.5812504680910263 0.7627114593547049 -0.05813232756904868 0.0
C C 0.5344375785040862 0.9040017004001007 -0.10961558364866247 0.0
H H 0.5170663785040863 0.8393717004001009 -0.14579558364866246 0.0
C C 0.5159469885222832 1.0430155198026203 -0.09977594873986334 0.0
C C 0.5408688664567651 1.123645308980829 -0.05277908168793178 0.0
H H 0.5308277664567653 1.218615308980829 -0.047847281687931786 0.0
C C 0.5795680915721269 1.0710462408870918 0.0032956800036341616 0.0
H H 0.5974269915721269 1.1332162408870916 0.04028748000363416 0.0
Zn Zn 0.6700223118367427 1.3018645810730634 0.8431311508959198 0.0
Zn Zn 0.6710348920932757 0.9024110000159509 1.0488311103660377 0.0
O O 0.7363092368311881 1.1521719830983501 0.8118995047084764 0.0
O O 0.6778756698943476 1.1226062980616476 0.9313021847669485 0.0
O O 0.7083646148778484 0.9116724027746146 0.9642087793120652 0.0
O O 0.799845199015967 0.7861782886465924 0.9027783501384027 0.0
O O 0.8631523854347235 0.9205361147464421 0.9611113612117852 0.0
O O 0.821179222946621 0.9330022893627856 0.7555236229386765 0.0
O O 0.8606974975372432 1.1209746093260675 0.7259129357064015 0.0
O O 0.8185332992188982 1.451285857015123 0.8699283108935452 0.0
O O 0.7388515886029892 1.382293300506086 0.9035430279106836 0.0
N N 0.6158227012597514 1.1949711629205584 0.7621398212405196 0.0
N N 0.39803184155633164 0.9353516754993587 0.5028712986200047 0.0
C C 0.7424660230046822 1.0333002483514888 0.8632663093698769 0.0
H H 0.7379270230046823 0.9457802483514889 0.8305649093698769 0.0
C C 0.7996324996362716 1.0424183635835482 0.8984573706915674 0.0
H H 0.7999734996362714 1.0994883635835482 0.9471559706915673 0.0
C C 0.8218507635948753 1.1441282739417293 0.8322729664480116 0.0
H H 0.8505217635948753 1.1968982739417295 0.8608315664480116 0.0
C C 0.7830365163065065 1.2411057693099332 0.8099653038245572 0.0
H H 0.7861275163065065 1.2746857693099332 0.756213903824557 0.0
C C 0.7078687724328271 1.0339507551017282 0.911718812271742 0.0
C C 0.8234538545754793 0.8923104954933776 0.9191062567096859 0.0
C C 0.836698863046421 1.0673372358188442 0.7716453762824489 0.0
C C 0.7756658224383082 1.3771901685923567 0.860978872120164 0.0
C C 0.6085384842853888 1.0674726415638816 0.7517514446778157 0.0
H H 0.6329873842853888 1.0044426415638816 0.7759696446778158 0.0
C C 0.5649131510891003 1.0047162356444177 0.6949293776332369 0.0
H H 0.5630019510891002 0.9058862356444176 0.685587477633237 0.0
C C 0.5276790613537673 1.098421549626332 0.6580515236306601 0.0
C C 0.5309824537344792 1.2425162609680591 0.6753276931274268 0.0
H H 0.5077512537344792 1.308686260968059 0.6507076931274267 0.0
C C 0.5804289576449616 1.2862289388622001 0.7275210345404963 0.0
H H 0.5831377576449616 1.3841989388622002 0.7391010345404964 0.0
C C 0.4283013025560163 0.8510818611989485 0.5613395350949121 0.0
H H 0.4179124025560163 0.7558518611989484 0.5641176350949121 0.0
C C 0.4660931611146587 0.893950106086397 0.6112506725567706 0.0
H H 0.4834643611146586 0.829320106086397 0.6474306725567706 0.0
C C 0.48486306027101805 1.0427386875677063 0.6040911769691695 0.0
C C 0.46014286844886365 1.1212268882404473 0.5564626527248836 0.0
H H 0.4701839684488636 1.216196888240447 0.5515308527248837 0.0
C C 0.4181312889537354 1.0622809254802636 0.5031763900052432 0.0
H H 0.4002723889537354 1.1244509254802635 0.46618459000524326 0.0
Zn Zn 0.17414548936963142 -0.7986857630102362 0.34566029363078027 0.0
Zn Zn 0.1734810942264466 -0.3950374104148336 0.5561108485345174 0.0
O O 0.23797012836609302 -0.6557845234654766 0.3062054098402061 0.0
O O 0.17472425595246932 -0.6301834129601175 0.42564567689481936 0.0
O O 0.20867334639358254 -0.4100673303985567 0.46565053881829643 0.0
O O 0.30409819123366477 -0.275962156450027 0.395968987211609 0.0
O O 0.36134328045808106 -0.41554636161116926 0.46433204548097884 0.0
O O 0.3190053022030368 -0.42454782625797055 0.2559614083691066 0.0
O O 0.36108895263329316 -0.6297911325583797 0.22729991833914925 0.0
O O 0.32161942412325256 -0.9531541928026144 0.374034995189967 0.0
O O 0.24335836895292393 -0.8975629757662396 0.3999439760924062 0.0
N N 0.11019758686162369 -0.7051421275183473 0.2623450542259544 0.0
N N -0.10394188770155913 -0.44275617923560723 0.001090868141038524 0.0
C C 0.24474819733560849 -0.523835065277176 0.3570162857085492 0.0
H H 0.24020919733560847 -0.43631506527717606 0.3243148857085492 0.0
C C 0.29350702508816173 -0.5470788818627929 0.39986544939654417 0.0
H H 0.2938480250881617 -0.6041488818627929 0.4485640493965442 0.0
C C 0.3219173424708567 -0.6244153233116065 0.3413296568843758 0.0
H H 0.35058834247085663 -0.6771853233116064 0.36988825688437577 0.0
C C 0.2785654864672456 -0.7472924805108917 0.31426225415021647 0.0
H H 0.28165648646724556 -0.7808724805108918 0.26051085415021646 0.0
C C 0.20803290253132342 -0.5178209626172084 0.4219215446961522 0.0
C C 0.3228817524046892 -0.39276872058732615 0.4268590508631621 0.0
C C 0.3320091279604073 -0.5526148958484876 0.26954839252804 0.0
C C 0.27525655393133275 -0.8625535081177029 0.36880280108857 0.0
C C 0.1045018149741483 -0.5554718664233609 0.2554821398396869 0.0
H H 0.12895071497414828 -0.49244186642336085 0.2797003398396869 0.0
C C 0.0686727800886607 -0.49802108481592583 0.1946141718392754 0.0
H H 0.06676158008866069 -0.3991910848159258 0.18527227183927542 0.0
C C 0.030621376782893003 -0.5942101800518751 0.16737672546613167 0.0
C C 0.037986323421112425 -0.7288920539489009 0.1775155252598998 0.0
H H 0.014755123421112437 -0.7950620539489008 0.1528955252598998 0.0
C C 0.07457186457933845 -0.7789518007038765 0.2294181120989325 0.0
H H 0.07728066457933845 -0.8769218007038765 0.24099811209893252 0.0
C C -0.0758613954369165 -0.35156176160645863 0.05387099675571015 0.0
H H -0.08625029543691652 -0.25633176160645854 0.05664909675571015 0.0
C C -0.031427232336801336 -0.3960517712372665 0.10357263215062446 0.0
H H -0.014056032336801333 -0.33142177123726657 0.13975263215062447 0.0
C C -0.014245503896003878 -0.5374902178380566 0.10797764814190047 0.0
C C -0.0430094621632617 -0.6276343905286937 0.04714067847089898 0.0
H H -0.032968362163261704 -0.7226043905286937 0.042208878470898985 0.0
C C -0.08440889625607333 -0.5661957847269562 0.002402103913498038 0.0
H H -0.10226779625607334 -0.6283657847269563 -0.03458969608650196 0.0
Zn Zn -0.1714605893860751 -0.809919875277923 -0.8432603420631518 0.0
Zn Zn -0.17274197011277995 -0.3971617379533136 -1.052636030257793 0.0
O O -0.23678105145571418 -0.6613489341791112 -0.8063620744935343 0.0
O O -0.18131531740747361 -0.6350203276442099 -0.9224662782351216 0.0
O O -0.20536448168828791 -0.4128260012439852 -0.9646339917406953 0.0
O O -0.2996319071911659 -0.2781081405481595 -0.9073299092341494 0.0
O O -0.36482824079272846 -0.41154528740266005 -0.9728318137061176 0.0
O O -0.3201327846103271 -0.4317197152308478 -0.7486481182258774 0.0
O O -0.3682104617273015 -0.6199573196890192 -0.7300749297182945 0.0
O O -0.31595752993718934 -0.948257546038 -0.8750977603111583 0.0
O O -0.2448411230144151 -0.8913914706882425 -0.9006368277421275 0.0
N N -0.11416008645247827 -0.6929171663303278 -0.7733938795869991 0.0
N N 0.10047114139859094 -0.441657969397744 -0.5108781304307832 0.0
C C -0.24383355184904962 -0.5347478744988954 -0.8628948227595804 0.0
H H -0.2392945518490496 -0.44722787449889534 -0.8301934227595804 0.0
C C -0.29714340766082087 -0.538821183091999 -0.8997989284685731 0.0
H H -0.29748440766082085 -0.595891183091999 -0.9484975284685732 0.0
C C -0.323345600170159 -0.6323364263815828 -0.8459060508736551 0.0
H H -0.352016600170159 -0.6851064263815828 -0.8744646508736551 0.0
C C -0.279993433578994 -0.7314917392737387 -0.8079606184584363 0.0
H H -0.283084433578994 -0.7650717392737388 -0.754209218458436 0.0
C C -0.20433995842258845 -0.5259182943557307 -0.9221677665379682 0.0
C C -0.32465671800847323 -0.40647153088114135 -0.928676168931672 0.0
C C -0.3378226818505654 -0.5637110650498443 -0.7712454344310542 0.0
C C -0.2800081245033967 -0.8649295790819548 -0.8669700377214504 0.0
C C -0.10711154351724601 -0.562986112017212 -0.7531606694107461 0.0
H H -0.13156044351724602 -0.499956112017212 -0.7773788694107462 0.0
C C -0.0700003671930907 -0.511554704001621 -0.6989991046973094 0.0
H H -0.06808916719309072 -0.4127247040016209 -0.6896572046973094 0.0
C C -0.031203673328173594 -0.5949097751556385 -0.6619999238015081 0.0
C C -0.031718059642163204 -0.7302578017897321 -0.6791271375316977 0.0
H H -0.008486859642163206 -0.796427801789732 -0.6545071375316976 0.0
C C -0.07290571132773366 -0.7902371420231107 -0.7242277451935423 0.0
H H -0.07561451132773364 -0.8882071420231108 -0.7358077451935422 0.0
C C 0.07521225711310942 -0.3602913935998641 -0.552270464858168 0.0
H H 0.08560115711310945 -0.265061393599864 -0.555048564858168 0.0
C C 0.031768527233153786 -0.4025279046002995 -0.6047517236170471 0.0
H H 0.014397327233153802 -0.3378979046002995 -0.6409317236170472 0.0
C C 0.01924514741555038 -0.540002479410006 -0.6059676743564752 0.0
C C 0.03828853458012336 -0.6192773867787261 -0.5475922307116495 0.0
H H 0.028247434580123357 -0.7142473867787262 -0.5426604307116496 0.0
C C 0.08520461276183469 -0.5684403780845155 -0.4992154163696797 0.0
H H 0.10306351276183469 -0.6306103780845155 -0.46222361636967985 0.0
Zn Zn 0.6696248190208189 -0.292209999217489 0.3376420565936542 0.0
Zn Zn 0.6748276687036779 0.10950524497874095 0.5468114388438003 0.0
O O 0.7314024821442868 -0.16772538987409502 0.30645644814821393 0.0
O O 0.6762048412124254 -0.14391701840906332 0.4252113539537087 0.0
O O 0.7058793597492403 0.08092363928503148 0.4556431560677998 0.0
O O 0.7978229618243594 0.2160395163228303 0.40333309422849106 0.0
O O 0.8601333650380076 0.08535027610882523 0.4663318817418987 0.0
O O 0.8210727258932148 0.07737423435339424 0.24984317988507287 0.0
O O 0.8630814084031369 -0.13508173194783707 0.2267643176405611 0.0
O O 0.8176543192072944 -0.44507167849741264 0.3727745427168853 0.0
O O 0.7453248745502405 -0.3875405470543791 0.3965286017150765 0.0
N N 0.6152873709815945 -0.20251139789096193 0.26794715157119137 0.0
N N 0.3972365115863224 0.06384162076404622 -0.002751879119141985 0.0
C C 0.7398979262463592 -0.02350347403204953 0.36168554661057484 0.0
H H 0.7353589262463591 0.06401652596795052 0.32898414661057485 0.0
C C 0.8004716942219684 -0.038156748695889274 0.40028451034011836 0.0
H H 0.8008126942219683 -0.09522674869588924 0.4489831103401184 0.0
C C 0.8229879955330482 -0.1380032143757133 0.3395035330804848 0.0
H H 0.8516589955330484 -0.1907732143757133 0.36806213308048474 0.0
C C 0.7797385122283357 -0.24055571524316283 0.31489356964087434 0.0
H H 0.7828295122283355 -0.2741357152431629 0.26114216964087433 0.0
C C 0.7027791072447069 -0.03640725632995458 0.42241784845843156 0.0
C C 0.8262168477931378 0.09257187917737449 0.4270969078473018 0.0
C C 0.8336042749086694 -0.0698029107651079 0.26731734347713426 0.0
C C 0.7750743095976229 -0.3615361967633627 0.36343188464841986 0.0
C C 0.6079554441165973 -0.04602198479980746 0.24487001001339248 0.0
H H 0.6324043441165974 0.017008015200192565 0.2690882100133925 0.0
C C 0.5658253107437125 -0.0036997697844572287 0.20227026996219655 0.0
H H 0.5639141107437123 0.09513023021554273 0.19292836996219656 0.0
C C 0.5263767951536031 -0.09160074373945204 0.15737336482589068 0.0
C C 0.5373811137004076 -0.2405363609705768 0.17801384659664843 0.0
H H 0.5141499137004077 -0.30670636097057674 0.15339384659664843 0.0
C C 0.575238443848397 -0.27719397434447274 0.2223094031352727 0.0
H H 0.577947243848397 -0.37516397434447274 0.23388940313527268 0.0
C C 0.42679375207086395 0.1523576508110625 0.05845206580152392 0.0
H H 0.416404852070864 0.24758765081106254 0.06123016580152392 0.0
C C 0.4710639805857016 0.10195823242781514 0.1098908010963544 0.0
H H 0.4884351805857016 0.16658823242781512 0.14607080109635442 0.0
C C 0.48858931409399753 -0.0348413776891893 0.10473003351246812 0.0
C C 0.4559495980560181 -0.1218181693666439 0.042948133628829675 0.0
H H 0.4659906980560181 -0.21678816936664386 0.038016333628829675 0.0
C C 0.41907442357357394 -0.07161847262609354 -0.0032323621239366655 0.0
H H 0.40121552357357393 -0.13378847262609347 -0.04022416212393667 0.0
Zn Zn 0.3276538797787831 -0.289407451689305 -0.841235047086004 0.0
Zn Zn 0.3237602054860347 0.10245112822632844 -1.046588127990917 0.0
O O 0.263833745194951 -0.1540407289454984 -0.8121737187761499 0.0
O O 0.3211060328439176 -0.1465986836899987 -0.9208060217844373 0.0
O O 0.29329083443974246 0.08963094099333592 -0.959853324982146 0.0
O O 0.1999367604770477 0.213832813540798 -0.8986352418715368 0.0
O O 0.13023328013585816 0.09061052064763064 -0.965667116940754 0.0
O O 0.1844874226223429 0.06611857087003706 -0.7495019525490504 0.0
O O 0.13655757953050973 -0.11791071233832576 -0.7349790961807677 0.0
O O 0.1871077571366402 -0.4508444060596423 -0.8733466437940838 0.0
O O 0.25761719615611184 -0.39678041670211134 -0.9015086968119976 0.0
N N 0.3900007159443349 -0.20656389216753077 -0.764453310190583 0.0
N N 0.6007697344269382 0.05925836740368693 -0.5002716844031433 0.0
C C 0.25926199875844724 -0.024351978376561976 -0.8640050793367681 0.0
H H 0.2638009987584472 0.06316802162343807 -0.8313036793367681 0.0
C C 0.20649098406268046 -0.039711272880981696 -0.8946020656442004 0.0
H H 0.2061499840626805 -0.09678127288098164 -0.9433006656442005 0.0
C C 0.17829553244854665 -0.14724057619994418 -0.8378070162087914 0.0
H H 0.14962453244854665 -0.20001057619994417 -0.8663656162087914 0.0
C C 0.21745996282816413 -0.24286420447002038 -0.8106347995856348 0.0
H H 0.21436896282816414 -0.27644420447002044 -0.7568833995856346 0.0
C C 0.2979429760157803 -0.03204132550452446 -0.9177019781572981 0.0
C C 0.18145471819286377 0.09827316133981687 -0.9192287908216225 0.0
C C 0.16471088544303927 -0.057766934670171764 -0.7600321162422389 0.0
C C 0.22393375330613405 -0.3755645360034933 -0.8588188447728135 0.0
C C 0.39294727457627626 -0.05786017789887595 -0.7485644305148161 0.0
H H 0.3684983745762762 0.005169822101124075 -0.7727826305148162 0.0
C C 0.4280594681150906 -0.003596675755375602 -0.6964804252773277 0.0
H H 0.42997066811509055 0.09523332424462437 -0.6871385252773277 0.0
C C 0.47223122715905036 -0.09818124048088724 -0.6577594026997273 0.0
C C 0.4678676568285916 -0.2414709148681006 -0.6708506743451469 0.0
H H 0.4910988568285916 -0.3076409148681005 -0.6462306743451468 0.0
C C 0.4250124022036907 -0.28816518891147364 -0.7352126818141489 0.0
H H 0.42230360220369073 -0.3861351889114737 -0.7467926818141489 0.0
C C 0.5733124966557881 0.16185078743757106 -0.5621059156616238 0.0
H H 0.5837013966557881 0.25708078743757107 -0.5648840156616238 0.0
C C 0.5274543760356588 0.09541326542768126 -0.6072735122855321 0.0
H H 0.5100831760356588 0.16004326542768124 -0.6434535122855322 0.0
C C 0.5196556313824292 -0.03594480347996735 -0.6069562752431698 0.0
C C 0.5451505212392519 -0.11568628187095956 -0.5466581837858151 0.0
H H 0.5351094212392519 -0.2106562818709595 -0.5417263837858152 0.0
C C 0.5847420880315576 -0.08212585417941598 -0.5058701646729875 0.0
H H 0.6026009880315577 -0.14429585417941596 -0.4688783646729876 0.0
