_cell_length_a 27.1013
_cell_length_b 9.27321
_cell_length_c 16.979215
_cell_angle_alpha 90.0
_cell_angle_beta 99.1565
_cell_angle_gamma 90.0
_symmetry_space_group_name_H-M         'P 1'
_symmetry_Int_Tables_number            1
loop_
_symmetry_equiv_pos_as_xyz
   'x, y, z'
                         
loop_
_atom_site_label
_atom_site_type_symbol
_atom_site_fract_x 
_atom_site_fract_y
_atom_site_fract_z
_atom_site_charge
Zn Zn -0.17060226239535675 0.7844197321833984 -0.33651585159062625 0.0
Zn Zn -0.16807270616549427 0.39823202407843383 -0.5438851213084416 0.0
O O -0.23288573036860713 0.6450007732643114 -0.30806364368294514 0.0
O O -0.18145371605705168 0.6290265905168404 -0.42746793623794516 0.0
O O -0.21031513290616083 0.40235163711852334 -0.45548778828796826 0.0
O O -0.3006813738923247 0.2670569389236013 -0.3960947881725921 0.0
O O -0.3676334201023419 0.4155272120153573 -0.47431587639694966 0.0
O O -0.3182880312784124 0.41588366658910125 -0.2506123471169761 0.0
O O -0.36832050009715167 0.6344129352822923 -0.23576057587004204 0.0
O O -0.3236041919558467 0.9531765333904794 -0.38001922253152826 0.0
O O -0.24490574227532907 0.8959140227240765 -0.4041515324395477 0.0
N N -0.11555384722928064 0.7060417539477375 -0.27408890681409137 0.0
N N 0.0964550630758952 0.43941456907665927 -0.0069588150590933154 0.0
C C -0.24284806638633658 0.5382942870290137 -0.36220895024574484 0.0
H H -0.2383090663863366 0.45077428702901373 -0.32950755024574485 0.0
C C -0.29745119835277173 0.5272083380642265 -0.4012624582403884 0.0
H H -0.29779219835277176 0.5842783380642266 -0.4499610582403884 0.0
C C -0.3181593477225477 0.6378222257911679 -0.3365542692945506 0.0
H H -0.34683034772254767 0.6905922257911679 -0.36511286929455056 0.0
C C -0.2750337477418598 0.7324737774381751 -0.3079320216371741 0.0
H H -0.2781247477418598 0.7660537774381753 -0.2541806216371741 0.0
C C -0.19996713007705622 0.5270249496915551 -0.4156977350138325 0.0
C C -0.3253678787756949 0.39924025561965176 -0.43063751972304243 0.0
C C -0.3320455338818972 0.5576711411732579 -0.2649819341105916 0.0
C C -0.27520513804744895 0.8575334474632126 -0.35771314471410837 0.0
C C -0.10712042607527986 0.5524502169089757 -0.25734283459303314 0.0
H H -0.13156932607527985 0.4894202169089757 -0.28156103459303317 0.0
C C -0.06280236067544147 0.5094248431000481 -0.1984581868416623 0.0
H H -0.060891160675441446 0.41059484310004807 -0.18911628684166232 0.0
C C -0.032075799618269556 0.5827441543332499 -0.15552401261243037 0.0
C C -0.03784657424572445 0.734954525192091 -0.17350306892038672 0.0
H H -0.014615374245724455 0.801124525192091 -0.14888306892038672 0.0
C C -0.07747838337715487 0.7892901780016389 -0.23333697404075185 0.0
H H -0.08018718337715487 0.887260178001639 -0.24491697404075183 0.0
C C 0.07823817516014299 0.35287468888581114 -0.0542528322995875 0.0
H H 0.088627075160143 0.2576446888858111 -0.0570309322995875 0.0
C C 0.025032950122695064 0.40148904248653716 -0.1151840472188696 0.0
H H 0.007661750122695064 0.3368590424865372 -0.1513640472188696 0.0
C C 0.015971902822452012 0.5275902431227191 -0.10326430627344617 0.0
C C 0.03926206704158589 0.6280913899070678 -0.04743794547813702 0.0
H H 0.029220967041585895 0.7230613899070678 -0.04250614547813702 0.0
C C 0.08099249163974714 0.5742508883233253 -0.009067650376798523 0.0
H H 0.09885139163974715 0.6364208883233253 0.02792414962320148 0.0
Zn Zn 0.16740160136595636 0.8007115250060258 0.8347253603044492 0.0
Zn Zn 0.17367919316748773 0.3815901922818873 1.056254543766116 0.0
O O 0.23034716628655144 0.6696902444981411 0.8026762041402845 0.0
O O 0.17792105344141315 0.6300510962949857 0.9204077606448976 0.0
O O 0.20323745329720888 0.42076052301071654 0.9569386256671008 0.0
O O 0.302667711774623 0.2926176983006395 0.8948312754017795 0.0
O O 0.36571953280470026 0.41086574267409365 0.9665983800516702 0.0
O O 0.31876514120705024 0.43869050196845416 0.7590239742540231 0.0
O O 0.3649808288089666 0.6325344083239515 0.7339124638262648 0.0
O O 0.31606388021597176 0.9321872972351386 0.8756553740908157 0.0
O O 0.2402248172269854 0.8886231556174641 0.9055513851331839 0.0
N N 0.10938457333008181 0.6982170696253421 0.7633330050618637 0.0
N N -0.10522414761778691 0.4314350782782281 0.5000813775254705 0.0
C C 0.24216366955809462 0.5389655141392748 0.8536945071937639 0.0
H H 0.2376246695580946 0.45144551413927486 0.820993107193764 0.0
C C 0.2971256139813846 0.5474656847292153 0.8986482030179057 0.0
H H 0.29746661398138463 0.6045356847292153 0.9473468030179057 0.0
C C 0.32680967462775035 0.6243354721103388 0.8446612253102741 0.0
H H 0.3554806746277504 0.6771054721103388 0.8732198253102741 0.0
C C 0.2772418829819155 0.7289198962401019 0.8071018451457926 0.0
H H 0.2803328829819155 0.762499896240102 0.7533504451457924 0.0
C C 0.2064207944867237 0.5350899462455702 0.9129270135718724 0.0
C C 0.32169098097643006 0.4039744471917772 0.9284389230027839 0.0
C C 0.3356383102481294 0.5423592715157973 0.7692406999401527 0.0
C C 0.2787555312705447 0.8670136635477317 0.8671093841535201 0.0
C C 0.10712279684606026 0.557322399895541 0.7522286368023292 0.0
H H 0.13157169684606024 0.4942923998955409 0.7764468368023293 0.0
C C 0.060382105668958984 0.5026294428447399 0.6923902623059568 0.0
H H 0.05847090566895898 0.40379944284473984 0.6830483623059568 0.0
C C 0.028778851472555433 0.6041787520172888 0.6580045557256251 0.0
C C 0.029719046234242444 0.7366055712116268 0.6751587749056588 0.0
H H 0.006487846234242445 0.8027755712116268 0.6505387749056587 0.0
C C 0.07767983943607351 0.7785896954264596 0.7292881265477704 0.0
H H 0.08038863943607351 0.8765596954264598 0.7408681265477703 0.0
C C -0.0674756644972908 0.3481441517258325 0.5609983612403672 0.0
H H -0.07786456449729079 0.2529141517258325 0.5637764612403672 0.0
C C -0.031907088690605864 0.40122073232351463 0.6147008770989009 0.0
H H -0.014535888690605866 0.3365907323235146 0.650880877098901 0.0
C C -0.015195685803240482 0.5275510791858316 0.6059234464106115 0.0
C C -0.03895189175423205 0.6302549739458092 0.5578779566254218 0.0
H H -0.02891079175423205 0.7252249739458093 0.552946156625422 0.0
C C -0.08424648813371631 0.5598001744452148 0.5022587776220342 0.0
H H -0.10210538813371631 0.6219701744452147 0.46526697762203434 0.0
Zn Zn 0.3254825449582452 1.296466682804061 -0.3363368052403395 0.0
Zn Zn 0.32727462081936326 0.9059433168634955 -0.5528863416720247 0.0
O O 0.2689313345033214 1.1507015841992865 -0.3036022018233348 0.0
O O 0.3181805630182936 1.1380735388755325 -0.42436102022174055 0.0
O O 0.2863947500741588 0.9191490613727409 -0.4624008189170261 0.0
O O 0.20302448390108385 0.7754754109399111 -0.3968248516973322 0.0
O O 0.1315197317107168 0.9209284311813384 -0.47491243499089136 0.0
O O 0.1785008597555823 0.9400767429502878 -0.26230348672132986 0.0
O O 0.13720568892854984 1.1192088162016227 -0.23441936102684807 0.0
O O 0.183085889971124 1.442754827419147 -0.3754815432782654 0.0
O O 0.2577944758817156 1.3927781035805937 -0.39352708946877185 0.0
N N 0.3884619666659082 1.2127238775638447 -0.2659490475637463 0.0
N N 0.5971418681918307 0.9385440533150974 0.0016284018384860005 0.0
C C 0.25908164609822937 1.024647792797449 -0.36464412199541546 0.0
H H 0.2636206460982293 0.9371277927974488 -0.33194272199541547 0.0
C C 0.20217981049581082 1.0375212311020754 -0.4002507912507268 0.0
H H 0.20183881049581082 1.0945912311020753 -0.44894939125072686 0.0
C C 0.17847421467847174 1.1370119472598992 -0.3331667010145105 0.0
H H 0.14980321467847174 1.1897819472598996 -0.36172530101451045 0.0
C C 0.21781151439849716 1.2349083175799702 -0.3138326946880199 0.0
H H 0.21472051439849715 1.2684883175799704 -0.2600812946880199 0.0
C C 0.2951156547375106 1.0240428541190738 -0.41759328680737123 0.0
C C 0.182244799676389 0.8962453081177945 -0.4240389765564926 0.0
C C 0.16699914819227069 1.066300256415093 -0.2661452049546627 0.0
C C 0.22091003143206547 1.3766274001316092 -0.3640463851046069 0.0
C C 0.39513687418111465 1.0554517424869978 -0.2492234312961839 0.0
H H 0.3706879741811147 0.9924217424869977 -0.27344163129618393 0.0
C C 0.4390951543594551 0.9892199153432979 -0.19160623875590194 0.0
H H 0.4410063543594551 0.890389915343298 -0.18226433875590198 0.0
C C 0.4749556408589885 1.0870178202372163 -0.1502014533191409 0.0
C C 0.46808689840981565 1.2255947373385927 -0.16960106856261906 0.0
H H 0.49131809840981555 1.2917647373385928 -0.14498106856261905 0.0
C C 0.42139569630636603 1.294079455146456 -0.22472788395807247 0.0
H H 0.41868689630636596 1.3920494551464562 -0.23630788395807245 0.0
C C 0.5706883610653141 0.8414196037999105 -0.05836200547603709 0.0
H H 0.5810772610653141 0.7461896037999105 -0.06114010547603708 0.0
C C 0.5276509079561448 0.8898759740338844 -0.10738118451166281 0.0
H H 0.5102797079561449 0.8252459740338844 -0.1435611845116628 0.0
C C 0.5143186102234569 1.0230835820397108 -0.10445167963970212 0.0
C C 0.5429847532180172 1.1169232630872865 -0.03979337433581376 0.0
H H 0.5329436532180173 1.2118932630872863 -0.034861574335813765 0.0
C C 0.586320763838172 1.0787158366887557 0.004445783164469596 0.0
H H 0.6041796638381721 1.1408858366887555 0.0414375831644696 0.0
Zn Zn 0.6756806550278124 1.2947730279536318 0.8464924541913263 0.0
Zn Zn 0.6697904379518835 0.9029937051168183 1.0412441722949124 0.0
O O 0.7371144575178442 1.1628283515616034 0.8063242678665982 0.0
O O 0.6775380510156002 1.1435107732580134 0.9250566007964404 0.0
O O 0.7089289166595966 0.907733443019789 0.95648645331755 0.0
O O 0.8073252050233235 0.7860605778135881 0.9060310193669351 0.0
O O 0.8651065387477235 0.9158794090531827 0.9664399917280431 0.0
O O 0.8134217175821516 0.9406173407133223 0.7473175030791367 0.0
O O 0.8629827817924303 1.1234250973643891 0.72138920672442 0.0
O O 0.8185233370463717 1.4496072817135544 0.8773983919437403 0.0
O O 0.7426119961152777 1.3878591858792304 0.9053932241308854 0.0
N N 0.6132479512041971 1.1834116234352996 0.7682614327190681 0.0
N N 0.40137966862162483 0.944549382271756 0.5125439598117798 0.0
C C 0.7416492143280515 1.0174543161681207 0.8637268337809846 0.0
H H 0.7371102143280517 0.9299343161681206 0.8310254337809846 0.0
C C 0.7957406803086083 1.035536694527081 0.8930459573455267 0.0
H H 0.796081680308608 1.092606694527081 0.9417445573455268 0.0
C C 0.8185166097788501 1.1312062435378711 0.8336140430978709 0.0
H H 0.8471876097788502 1.1839762435378711 0.8621726430978709 0.0
C C 0.7797031752667887 1.234984008558741 0.8146678657955951 0.0
H H 0.7827941752667886 1.268564008558741 0.7609164657955949 0.0
C C 0.7069208718870359 1.0180694730477808 0.9245983119232969 0.0
C C 0.8223994734667137 0.8897947060942532 0.929060463367887 0.0
C C 0.8351003706923799 1.0657524590173657 0.7681642462076613 0.0
C C 0.7821286810270883 1.3653741265919215 0.8680843592273136 0.0
C C 0.6049170863958343 1.0605933841188138 0.7394313525947488 0.0
H H 0.6293659863958343 0.9975633841188136 0.7636495525947489 0.0
C C 0.5619032892838834 0.9955583667203712 0.691083265294944 0.0
H H 0.5599920892838833 0.8967283667203713 0.6817413652949441 0.0
C C 0.5340233760837405 1.0937239575120257 0.6679371506174975 0.0
C C 0.5367928168512176 1.2422218609264626 0.6743034967650009 0.0
H H 0.5135616168512176 1.3083918609264626 0.6496834967650008 0.0
C C 0.5759738410626142 1.2994001060796792 0.7231759615433806 0.0
H H 0.5786826410626142 1.3973701060796795 0.7347559615433805 0.0
C C 0.4248879217573498 0.8523110264331853 0.557834885281339 0.0
H H 0.4144990217573498 0.7570810264331854 0.560612985281339 0.0
C C 0.47102497864707704 0.8979110815166493 0.6013648837522253 0.0
H H 0.48839617864707696 0.8332810815166495 0.6375448837522253 0.0
C C 0.48456590012542755 1.0393126607615957 0.6035954400626244 0.0
C C 0.45850000279718395 1.1285259701232155 0.5453020205561722 0.0
H H 0.468541102797184 1.2234959701232155 0.5403702205561722 0.0
C C 0.41020099811756616 1.0758559030683017 0.4938834370383305 0.0
H H 0.39234209811756626 1.1380259030683015 0.4568916370383306 0.0
Zn Zn 0.17455504079998102 -0.8001098520487254 0.3426600293826567 0.0
Zn Zn 0.16956362840742892 -0.3796445944669623 0.5491980381498992 0.0
O O 0.2288299567376669 -0.6520559964328032 0.30674541734495303 0.0
O O 0.17537081541186778 -0.6305168160278548 0.42633426733455965 0.0
O O 0.20806477760261935 -0.41305626870764567 0.45926590164279335 0.0
O O 0.29602059214552856 -0.2825648382973626 0.3956188508104339 0.0
O O 0.36851115851582755 -0.421026955868237 0.47223443896396744 0.0
O O 0.3150606735690026 -0.42840216597645747 0.24718550582137438 0.0
O O 0.35822258009384417 -0.6306342514467946 0.22518189506370784 0.0
O O 0.3177451483989983 -0.9557579496381574 0.37667662506968813 0.0
O O 0.23698513991252895 -0.9014279288477302 0.4018384243990969 0.0
N N 0.11240101774300845 -0.6829213498674996 0.2617124459082306 0.0
N N -0.10174793618634982 -0.43909891835362147 0.010405285781904588 0.0
C C 0.24031731167443915 -0.5211382663428443 0.356278189130179 0.0
H H 0.23577831167443916 -0.4336182663428443 0.323576789130179 0.0
C C 0.30004220199776166 -0.5399215336479929 0.397927907045713 0.0
H H 0.30038320199776164 -0.5969915336479931 0.446626507045713 0.0
C C 0.32334884727569235 -0.6314710006411708 0.34785063342172456 0.0
H H 0.35201984727569235 -0.6842410006411708 0.37640923342172455 0.0
C C 0.2758507563670446 -0.726110316870875 0.30511923716812084 0.0
H H 0.27894175636704455 -0.7596903168708751 0.25136783716812083 0.0
C C 0.2086741331949837 -0.518085870758355 0.4176937070287304 0.0
C C 0.3205776013422924 -0.39262016683396583 0.41738106874417136 0.0
C C 0.3409155742679814 -0.5655940124445087 0.2680679869838641 0.0
C C 0.27758925682154084 -0.8606638839293603 0.3635550881583272 0.0
C C 0.1067300010200223 -0.5605857164551502 0.24518316809125495 0.0
H H 0.13117890102002228 -0.4975557164551502 0.269401368091255 0.0
C C 0.06495583116796384 -0.4867144392030382 0.19799870761131627 0.0
H H 0.06304463116796384 -0.3878844392030381 0.1886568076113163 0.0
C C 0.03539563047647928 -0.5863110780877422 0.16530698203989186 0.0
C C 0.03680364120495935 -0.7356059739646522 0.17376545627780085 0.0
H H 0.01357244120495936 -0.8017759739646522 0.14914545627780082 0.0
C C 0.0754036401819492 -0.7900741788618894 0.2229420542290343 0.0
H H 0.0781124401819492 -0.8880441788618895 0.2345220542290343 0.0
C C -0.07036768671495784 -0.36798287250860734 0.06064301575490043 0.0
H H -0.08075658671495785 -0.27275287250860725 0.06342111575490043 0.0
C C -0.03355693832514281 -0.3800607380021986 0.1030833187991322 0.0
H H -0.016185738325142817 -0.3154307380021986 0.1392633187991322 0.0
C C -0.011004220369798272 -0.5325985653523572 0.1005319655994702 0.0
C C -0.04209993117486495 -0.6334441892946847 0.05382889433789346 0.0
H H -0.03205883117486495 -0.7284141892946847 0.04889709433789347 0.0
C C -0.08382781320424873 -0.5699264690690524 -0.008517521776309848 0.0
H H -0.10168671320424874 -0.6320964690690525 -0.04550932177630985 0.0
Zn Zn -0.17516887537767448 -0.813175393868536 -0.841696982579338 0.0
Zn Zn -0.17790895256460906 -0.3867138676285781 -1.0514439532599176 0.0
O O -0.23630140836267538 -0.6478283385117852 -0.8087340271315812 0.0
O O -0.18159497709854266 -0.6408295602321277 -0.9303741121909264 0.0
O O -0.2036794106329205 -0.4218496065114735 -0.9617957836866797 0.0
O O -0.3009892425220291 -0.29179858501427064 -0.8968587654955258 0.0
O O -0.3641855261605885 -0.4095664220652396 -0.9736475332154879 0.0
O O -0.31905770212989565 -0.4421518700074166 -0.7525229076408638 0.0
O O -0.3582654320779063 -0.620240117422982 -0.7223699580760814 0.0
O O -0.3193508048804448 -0.9383537739123976 -0.8819923714143221 0.0
O O -0.24041954403018345 -0.888650864202541 -0.8919582500653535 0.0
N N -0.1095978524765177 -0.7032677030954979 -0.7672713089961829 0.0
N N 0.10208035891859031 -0.44194903938944374 -0.5094679370629622 0.0
C C -0.2448053309446853 -0.529334318621176 -0.8604603756161829 0.0
H H -0.2402663309446853 -0.44181431862117587 -0.827758975616183 0.0
C C -0.3011916023347359 -0.538498441897276 -0.900800041198902 0.0
H H -0.30153260233473594 -0.595568441897276 -0.9494986411989019 0.0
C C -0.32725776334561113 -0.6300005896693265 -0.846418812980514 0.0
H H -0.35592876334561113 -0.6827705896693264 -0.874977412980514 0.0
C C -0.2777387976132292 -0.72969719226974 -0.8155707938941507 0.0
H H -0.28082979761322924 -0.76327719226974 -0.7618193938941504 0.0
C C -0.21146745299096756 -0.5194781875038931 -0.9243062535920367 0.0
C C -0.32317304565214755 -0.38808348862618064 -0.9186536882037585 0.0
C C -0.337894096322248 -0.5458960424490555 -0.7687902178339107 0.0
C C -0.28199288085855545 -0.8599253418616963 -0.8748814502348502 0.0
C C -0.11183731918951711 -0.5565702891992678 -0.751523674306995 0.0
H H -0.1362862191895171 -0.4935402891992678 -0.775741874306995 0.0
C C -0.06685426215651609 -0.4945312005959924 -0.6940859163065537 0.0
H H -0.06494306215651609 -0.3957012005959925 -0.6847440163065537 0.0
C C -0.029826858064822985 -0.60568681058689 -0.6554696934716994 0.0
C C -0.033609646817633336 -0.7431180127638968 -0.6813369120079883 0.0
H H -0.010378446817633334 -0.8092880127638967 -0.6567169120079882 0.0
C C -0.07686650230161199 -0.7937039503806815 -0.7263227703670008 0.0
H H -0.07957530230161199 -0.8916739503806816 -0.7379027703670007 0.0
C C 0.07431177759907125 -0.356186822639611 -0.564656239327145 0.0
H H 0.08470067759907125 -0.26095682263961095 -0.5674343393271452 0.0
C C 0.03586058718499148 -0.40030473778357123 -0.6102913844416074 0.0
H H 0.018489387184991476 -0.33567473778357126 -0.6464713844416075 0.0
C C 0.019262948542317904 -0.5442982511892906 -0.605369474195999 0.0
C C 0.039760945120492636 -0.6298547207542206 -0.5547035526818358 0.0
H H 0.02971984512049264 -0.7248247207542206 -0.549771752681836 0.0
C C 0.08093593261042352 -0.5604291271937418 -0.4981216732777888 0.0
H H 0.09879483261042353 -0.6225991271937418 -0.46112987327778887 0.0
Zn Zn 0.6717612416605688 -0.3054132631241481 0.33904092808596864 0.0
Zn Zn 0.6724704023225083 0.09354507807513394 0.5443131157118946 0.0
O O 0.7312809126457206 -0.16025750785592485 0.30156804053743635 0.0
O O 0.6795326420403504 -0.13916970708997456 0.42755136944142785 0.0
O O 0.70764783131124 0.10097901856524129 0.4586511321223756 0.0
O O 0.8055951784543577 0.21907650674321777 0.4069849710022586 0.0
O O 0.8651832883162892 0.09516816434049534 0.46448558566092085 0.0
O O 0.8143725718483614 0.08117192232391011 0.25014651067270655 0.0
O O 0.8693820453182004 -0.12029565340265268 0.23507760912215525 0.0
O O 0.8188462912861747 -0.44782794528249964 0.3810969978273142 0.0
O O 0.7365718006220998 -0.3883838737044408 0.38949217540298253 0.0
N N 0.6117998311888011 -0.2046529400362232 0.27066758900763127 0.0
N N 0.3965066718637503 0.06932732680006422 -0.0004632112400137137 0.0
C C 0.7430268494703364 -0.046282206271633125 0.35705868316209355 0.0
H H 0.7384878494703364 0.04123779372836691 0.32435728316209356 0.0
C C 0.7941190257820778 -0.038389869234799485 0.40251093373628394 0.0
H H 0.7944600257820778 -0.09545986923479943 0.451209533736284 0.0
C C 0.8225597068956756 -0.1466404341512942 0.3368226821999222 0.0
H H 0.8512307068956757 -0.1994104341512942 0.3653812821999221 0.0
C C 0.7755307009241866 -0.22615136465850427 0.30942844122587376 0.0
H H 0.7786217009241866 -0.2597313646585043 0.2556770412258738 0.0
C C 0.7049193652406778 -0.027929236928340977 0.4089911363227823 0.0
C C 0.819506796998682 0.09612239241146826 0.41872688028803745 0.0
C C 0.8325512310933865 -0.059379374171230404 0.2653611204347701 0.0
C C 0.773284320650141 -0.3696314810423792 0.36775317771183325 0.0
C C 0.6077406995960498 -0.04915639140330831 0.2514162224275224 0.0
H H 0.6321895995960497 0.01387360859669171 0.2756344224275224 0.0
C C 0.5636061611156091 -0.0038480316017490113 0.19115429991983318 0.0
H H 0.5616949611156089 0.09498196839825096 0.1818123999198332 0.0
C C 0.5270738181749735 -0.08592104043014409 0.15051931879842653 0.0
C C 0.5345703875128368 -0.23895986578126086 0.17031193001615733 0.0
H H 0.5113391875128368 -0.3051298657812608 0.14569193001615732 0.0
C C 0.5722540166925936 -0.2765296255693762 0.2269885950307088 0.0
H H 0.5749628166925935 -0.3744996255693762 0.23856859503070882 0.0
C C 0.42981368489856275 0.13780154902129665 0.05925507772205306 0.0
H H 0.4194247848985627 0.23303154902129666 0.06203317772205306 0.0
C C 0.4730187768903713 0.11323564966458623 0.10631250774095337 0.0
H H 0.4903899768903713 0.17786564966458618 0.14249250774095337 0.0
C C 0.4907409834276993 -0.037156544493713424 0.10611922584334021 0.0
C C 0.46190914845929665 -0.12261812445568868 0.057919878009340654 0.0
H H 0.4719502484592967 -0.21758812445568862 0.052988078009340654 0.0
C C 0.4190052934612432 -0.08162689954809457 0.0029974530519003045 0.0
H H 0.4011463934612432 -0.1437968995480945 -0.0339943469480997 0.0
Zn Zn 0.3248803120513736 -0.30330687876047924 -0.8474875781376762 0.0
Zn Zn 0.3290286911057325 0.1142317839075935 -1.0472089094647896 0.0
O O 0.2643463007649649 -0.15742757230339816 -0.8051497598887557 0.0
O O 0.3221239427692009 -0.13989935693952604 -0.9270822616126495 0.0
O O 0.2889274201245494 0.09984451956368394 -0.9622480586707365 0.0
O O 0.19523005264552282 0.23310400108966306 -0.9064342576055825 0.0
O O 0.13194410925438857 0.08967053398418812 -0.9695677916649909 0.0
O O 0.18336920664275344 0.07418200715143838 -0.7477999386946276 0.0
O O 0.13789042416027178 -0.13899649091110758 -0.7246540568520985 0.0
O O 0.18437329846789566 -0.4554940563389725 -0.8694720605545376 0.0
O O 0.2571274289482629 -0.3994393932044783 -0.8946606709344997 0.0
N N 0.3834734702266171 -0.19233767358392206 -0.7723697361640313 0.0
N N 0.594745568500357 0.06100775303296298 -0.5067378270607846 0.0
C C 0.26294591619045254 -0.033631226910455676 -0.8559274721508856 0.0
H H 0.26748491619045256 0.05388877308954436 -0.8232260721508856 0.0
C C 0.19960368489904282 -0.0513932307324616 -0.9018038217681241 0.0
H H 0.1992626848990428 -0.10846323073246156 -0.950502421768124 0.0
C C 0.18213430251617307 -0.13893893793634118 -0.8378203845664 0.0
H H 0.1534633025161731 -0.19170893793634117 -0.8663789845664 0.0
C C 0.22094627707630915 -0.24392656666790638 -0.810345144637473 0.0
H H 0.21785527707630917 -0.2775065666679064 -0.7565937446374728 0.0
C C 0.29675266689162777 -0.03785698767931963 -0.9172221528000057 0.0
C C 0.17559540439825927 0.10056413871577545 -0.9207125710706157 0.0
C C 0.16128658445762134 -0.053323397039324136 -0.7714826262253475 0.0
C C 0.2278510712375045 -0.37696597231439793 -0.8576014991425102 0.0
C C 0.3922214205684124 -0.050474309347472886 -0.7434454021688129 0.0
H H 0.3677725205684124 0.012555690652527138 -0.767663602168813 0.0
C C 0.4377559489764429 -0.009725357384418992 -0.6996864468249732 0.0
H H 0.43966714897644293 0.08910464261558097 -0.6903445468249731 0.0
C C 0.46577177075719 -0.0978156004325777 -0.6611419835909664 0.0
C C 0.46449522445674907 -0.23450902873064958 -0.6716289598585902 0.0
H H 0.487726424456749 -0.3006790287306495 -0.6470089598585901 0.0
C C 0.4249663811804296 -0.29469926288569437 -0.7220354643049013 0.0
H H 0.42225758118042966 -0.39266926288569437 -0.7336154643049013 0.0
C C 0.5725894021385648 0.1561379836514665 -0.5651127417166798 0.0
H H 0.5829783021385647 0.2513679836514665 -0.5678908417166798 0.0
C C 0.5307982586336025 0.09245309399098778 -0.6093851150344954 0.0
H H 0.5134270586336026 0.15708309399098777 -0.6455651150344955 0.0
C C 0.5149505317829022 -0.049923299826783445 -0.6051175314025637 0.0
C C 0.5417741197156082 -0.12938468612077036 -0.5553287104024225 0.0
H H 0.5317330197156084 -0.22435468612077036 -0.5503969104024227 0.0
C C 0.5838169030675546 -0.081679926924969 -0.5067154756779804 0.0
H H 0.6016758030675545 -0.14384992692496898 -0.4697236756779805 0.0
