_cell_length_a 27.1013
_cell_length_b 9.27321
_cell_length_c 16.979215
_cell_angle_alpha 90.0
_cell_angle_beta 99.1565
_cell_angle_gamma 90.0
_symmetry_space_group_name_H-M         'P 1'
_symmetry_Int_Tables_number            1
loop_
_symmetry_equiv_pos_as_xyz
   'x, y, z'
                         
loop_
_atom_site_label
_atom_site_type_symbol
_atom_site_fract_x 
_atom_site_fract_y
_atom_site_fract_z
_atom_site_charge
Zn Zn -0.17474116028917933 0.8073872124360651 -0.3447854752095457 0.0
Zn Zn -0.1750430360710299 0.4015947233566113 -0.557075305496823 0.0
O O -0.2325225060080185 0.665566441883852 -0.30634940625075463 0.0
O O -0.18057333188369484 0.6267311225339925 -0.4320254701087563 0.0
O O -0.2118807437754712 0.4041453589231648 -0.45602747958655326 0.0
O O -0.3041330895083202 0.26977624526164246 -0.3971681658333229 0.0
O O -0.3672751172830729 0.4166359630678836 -0.4711183480027936 0.0
O O -0.32112335765962347 0.421363060910042 -0.2527979934856366 0.0
O O -0.3597139637916574 0.6108320850238682 -0.22321918941756677 0.0
O O -0.313579492883238 0.9383247330721776 -0.37264622539199516 0.0
O O -0.24003117803600105 0.9006473598851275 -0.403677422683946 0.0
N N -0.11143073560904604 0.6898155047519918 -0.2644920471842644 0.0
N N 0.09647260614144626 0.43624870456187675 -0.012491761494805593 0.0
C C -0.23680174140551138 0.5376027191894728 -0.35279520713345514 0.0
H H -0.23226274140551137 0.45008271918947274 -0.32009380713345514 0.0
C C -0.30008912872374455 0.5314736614899559 -0.3995192658955771 0.0
H H -0.3004301287237445 0.588543661489956 -0.4482178658955771 0.0
C C -0.32476017335042895 0.6438266146736251 -0.3471835825287943 0.0
H H -0.3534311733504289 0.6965966146736251 -0.37574218252879427 0.0
C C -0.27225615475186804 0.7266697269125392 -0.3040685141646057 0.0
H H -0.275347154751868 0.7602497269125393 -0.25031711416460567 0.0
C C -0.20108600065810847 0.5235362270204289 -0.41415627765514895 0.0
C C -0.3226751301204972 0.4082391351168684 -0.41868325199105216 0.0
C C -0.3347268632226913 0.5661092557337511 -0.2735652858992914 0.0
C C -0.27594332494856155 0.8617717983954604 -0.3629128589649221 0.0
C C -0.10316500285963331 0.5505238579547502 -0.2504631681094928 0.0
H H -0.1276139028596333 0.4874938579547502 -0.2746813681094928 0.0
C C -0.07370787951252282 0.50008995068654 -0.20241660696711555 0.0
H H -0.0717966795125228 0.4012599506865399 -0.1930747069671156 0.0
C C -0.029723089052298528 0.5960705675654496 -0.16493965043984476 0.0
C C -0.038543727711914354 0.7392815953955647 -0.17760963418186013 0.0
H H -0.015312527711914362 0.8054515953955647 -0.15298963418186012 0.0
C C -0.07838948596914597 0.7821356328218434 -0.23422724202538162 0.0
H H -0.08109828596914596 0.8801056328218434 -0.2458072420253816 0.0
C C 0.07373280805632014 0.3490228648935445 -0.06065126189678518 0.0
H H 0.08412170805632015 0.25379286489354447 -0.06342936189678516 0.0
C C 0.03467534808415449 0.3968708021821909 -0.1108147129506812 0.0
H H 0.017304148084154494 0.33224080218219093 -0.1469947129506812 0.0
C C 0.012961674136466992 0.5479161189018112 -0.10391864005319161 0.0
C C 0.0462745048808391 0.6322724902303805 -0.043241938360010064 0.0
H H 0.0362334048808391 0.7272424902303806 -0.03831013836001007 0.0
C C 0.08710706477291073 0.5693282975171026 0.002892705377981829 0.0
H H 0.10496596477291074 0.6314982975171026 0.039884505377981834 0.0
Zn Zn 0.17825081634471276 0.8060552760537011 0.8422112785857917 0.0
Zn Zn 0.1756895540033184 0.37969894630498463 1.0574569094310349 0.0
O O 0.23020823380480798 0.6496945889878146 0.8032287754456306 0.0
O O 0.18397380369650362 0.621241954884148 0.9307252682619619 0.0
O O 0.20340567457599448 0.4144439813837237 0.957890179982015 0.0
O O 0.29715118950992525 0.2944959902787155 0.8980080893165291 0.0
O O 0.3643749736752569 0.40732869602983107 0.9613683578982144 0.0
O O 0.3137406680038698 0.4367271318972437 0.7474177004904593 0.0
O O 0.3634270773078478 0.6177769613181466 0.7280430087878055 0.0
O O 0.3197444970954308 0.933676727938905 0.8732961471230454 0.0
O O 0.23918056332009222 0.8937611384413511 0.8954752144641113 0.0
N N 0.10982974120556416 0.6900915696499023 0.7614342354362661 0.0
N N -0.09890190758429182 0.44017189536126766 0.5093283560604028 0.0
C C 0.23780102374577175 0.5433809873856376 0.8582045550541276 0.0
H H 0.2332620237457717 0.45586098738563746 0.8255031550541276 0.0
C C 0.2968775836314567 0.5434403709806119 0.9055439173967139 0.0
H H 0.2972185836314567 0.6005103709806119 0.954242517396714 0.0
C C 0.32515099176901424 0.6336390251363383 0.8377683491939477 0.0
H H 0.35382199176901424 0.6864090251363383 0.8663269491939477 0.0
C C 0.27912721810471075 0.7421577446840137 0.8068191829664071 0.0
H H 0.2822182181047107 0.7757377446840138 0.7530677829664069 0.0
C C 0.2020027830119531 0.5303518786702518 0.9217294302986484 0.0
C C 0.32342210714979075 0.3977682249426372 0.92242199457154 0.0
C C 0.33641993097283357 0.5634171286550674 0.7740935876438668 0.0
C C 0.27946964810670166 0.8637352613289987 0.8648523825190889 0.0
C C 0.11119464999999236 0.5441448633054515 0.7504628808611318 0.0
H H 0.13564354999999234 0.48111486330545145 0.7746810808611317 0.0
C C 0.06556855321780478 0.4951995341785587 0.6991477989621186 0.0
H H 0.06365735321780477 0.3963695341785587 0.6898058989621186 0.0
C C 0.02815775200897402 0.6073048666214831 0.6545847619345256 0.0
C C 0.03767376080585114 0.7402386501432906 0.6791466424769712 0.0
H H 0.014442560805851148 0.8064086501432907 0.6545266424769711 0.0
C C 0.06997566629545621 0.7799547690874168 0.7251408411368455 0.0
H H 0.0726844662954562 0.8779247690874169 0.7367208411368456 0.0
C C -0.06912734371176739 0.35551497586276304 0.5597216590527571 0.0
H H -0.07951624371176738 0.260284975862763 0.5624997590527571 0.0
C C -0.034547459388693164 0.3858461819139584 0.6076960248862521 0.0
H H -0.01717625938869315 0.3212161819139584 0.6438760248862522 0.0
C C -0.01022056998478303 0.5422896833668545 0.601593069130144 0.0
C C -0.04207767212802021 0.6312233661930342 0.5419511538602291 0.0
H H -0.03203657212802021 0.7261933661930342 0.5370193538602291 0.0
C C -0.08535471170961827 0.5812835420297268 0.5056352231775224 0.0
H H -0.1032136117096183 0.6434535420297268 0.4686434231775225 0.0
Zn Zn 0.3263608662216356 1.2907749896916278 -0.34241499105995205 0.0
Zn Zn 0.3261744115251307 0.9057722731833265 -0.5577264657539687 0.0
O O 0.2666193797360905 1.1506470518011642 -0.31207647309907305 0.0
O O 0.32027581620814405 1.12548269267381 -0.4315847779022367 0.0
O O 0.290384767478409 0.9046547967345654 -0.46272583068346673 0.0
O O 0.1949001853791333 0.7732232202571763 -0.3977305864096303 0.0
O O 0.13942944201488286 0.9137327675952038 -0.4618030638589366 0.0
O O 0.1773018418173545 0.9397632478832808 -0.2522920799549064 0.0
O O 0.14172530364180067 1.1304000735085817 -0.22822248596328618 0.0
O O 0.1839409661992304 1.4452378819893787 -0.37672910509274327 0.0
O O 0.2597596811263434 1.3830803281903528 -0.4029689825125543 0.0
N N 0.382469955226063 1.2047472220351183 -0.2665089012684954 0.0
N N 0.6011426062465454 0.9476233232520384 0.000337082242737058 0.0
C C 0.2574256552872801 1.0370124913818493 -0.35859703946525634 0.0
H H 0.2619646552872801 0.9494924913818491 -0.32589563946525635 0.0
C C 0.20898082008954952 1.0416261514005898 -0.3930942995566883 0.0
H H 0.20863982008954954 1.0986961514005897 -0.4417928995566883 0.0
C C 0.1764243685218038 1.1370329567513302 -0.33444413636721315 0.0
H H 0.14775336852180376 1.1898029567513306 -0.3630027363672131 0.0
C C 0.2295638830285853 1.2363223376082813 -0.30401867039345293 0.0
H H 0.22647288302858531 1.2699023376082812 -0.2502672703934529 0.0
C C 0.29158775978675966 1.0260167679242027 -0.42526511737142025 0.0
C C 0.17116035614484082 0.8960257512934608 -0.42391687861555033 0.0
C C 0.1602648444518428 1.045928940030952 -0.2684381167960682 0.0
C C 0.2243857974975638 1.3716571523609398 -0.3623415840629183 0.0
C C 0.3860984447592316 1.0542726713097885 -0.2528224797019045 0.0
H H 0.36164954475923167 0.9912426713097884 -0.2770406797019045 0.0
C C 0.4281139238226325 1.0010393173681418 -0.2073180357561943 0.0
H H 0.43002512382263247 0.9022093173681418 -0.19797613575619435 0.0
C C 0.4739964088931261 1.0863619749598166 -0.15855338317110795 0.0
C C 0.4666716467567563 1.222790718007182 -0.17478948578140074 0.0
H H 0.48990284675675627 1.288960718007182 -0.1501694857814007 0.0
C C 0.4170488470709493 1.2856060942225171 -0.2373861186362961 0.0
H H 0.4143400470709493 1.3835760942225173 -0.24896611863629609 0.0
C C 0.5736289741655863 0.8417410281059475 -0.0628883180396029 0.0
H H 0.5840178741655865 0.7465110281059476 -0.06566641803960291 0.0
C C 0.5295041335876108 0.9064936990511978 -0.10885843799397352 0.0
H H 0.5121329335876109 0.8418636990511978 -0.1450384379939735 0.0
C C 0.5134803989315031 1.0300601852025213 -0.10987362764443094 0.0
C C 0.542247552321549 1.132475503023106 -0.0442844737141113 0.0
H H 0.5322064523215491 1.227445503023106 -0.039352673714111296 0.0
C C 0.5854004555710635 1.0805726696882172 -0.007177458943351014 0.0
H H 0.6032593555710636 1.1427426696882168 0.029814341056648985 0.0
Zn Zn 0.6713400526566864 1.294175642307042 0.8351587748100597 0.0
Zn Zn 0.6764990320449548 0.8980857971825597 1.0576687566977772 0.0
O O 0.732721346356486 1.1715328069184519 0.8074699139428482 0.0
O O 0.6730798234355351 1.1374246126297995 0.9203552410405468 0.0
O O 0.7039331746646629 0.9098333930339391 0.9558138177980089 0.0
O O 0.8010010294206942 0.7745335403555734 0.8991824330588692 0.0
O O 0.8595362011645741 0.9074527161551235 0.9668897200472604 0.0
O O 0.8157521948872433 0.9278121393483835 0.7463844678755586 0.0
O O 0.8630748110373384 1.12922839055801 0.7215090383541826 0.0
O O 0.8127792122729648 1.4372673171213846 0.8720772872157885 0.0
O O 0.7442755676791875 1.391385426907486 0.9003907678118211 0.0
N N 0.6083087078965714 1.1885454527425767 0.7691682946506407 0.0
N N 0.39941295024233536 0.9357962689000552 0.5001294727549287 0.0
C C 0.7451570549871518 1.025441720967401 0.8565654087483268 0.0
H H 0.7406180549871519 0.937921720967401 0.8238640087483268 0.0
C C 0.7909499180658336 1.0392699462693442 0.8925698380835606 0.0
H H 0.7912909180658333 1.0963399462693442 0.9412684380835606 0.0
C C 0.8254476727382944 1.1341286934040993 0.8359062148031776 0.0
H H 0.8541186727382944 1.1868986934040995 0.8644648148031776 0.0
C C 0.7724749625980278 1.2347526987945083 0.8073508483272269 0.0
H H 0.7755659625980278 1.2683326987945085 0.7535994483272268 0.0
C C 0.7068352373298615 1.0231024256946093 0.9235780630073318 0.0
C C 0.8244152555633733 0.9000484259738701 0.9181979309103664 0.0
C C 0.8351756102884984 1.0548494682354457 0.7690182937832947 0.0
C C 0.7807911427669991 1.3732373481490443 0.869040442840628 0.0
C C 0.6054076636230775 1.0632623030303232 0.7534976847785101 0.0
H H 0.6298565636230775 1.0002323030303233 0.7777158847785101 0.0
C C 0.5708373428246989 1.010435432952595 0.6992203754506177 0.0
H H 0.5689261428246989 0.911605432952595 0.6898784754506176 0.0
C C 0.5296643926126604 1.1049106628241356 0.6556747974514879 0.0
C C 0.5324825245035695 1.2482958026791857 0.6699027460370864 0.0
H H 0.5092513245035695 1.3144658026791856 0.6452827460370864 0.0
C C 0.5815753272403972 1.2837017473064944 0.7272049328898736 0.0
H H 0.5842841272403972 1.3816717473064948 0.7387849328898737 0.0
C C 0.4287319674986938 0.847569909480531 0.565525233814892 0.0
H H 0.4183430674986938 0.752339909480531 0.568303333814892 0.0
C C 0.46826212884469354 0.88897468211344 0.6048052591519416 0.0
H H 0.4856333288446935 0.8243446821134401 0.6409852591519416 0.0
C C 0.4879663111262366 1.0337983396966184 0.6097645549622647 0.0
C C 0.45353392883683746 1.1345713587071833 0.5436989879792287 0.0
H H 0.46357502883683743 1.2295413587071833 0.5387671879792287 0.0
C C 0.4124010117671405 1.0801647727538424 0.49134370042976855 0.0
H H 0.3945421117671405 1.1423347727538422 0.45435190042976864 0.0
Zn Zn 0.17734222576899283 -0.7996587311746662 0.34319580842824166 0.0
Zn Zn 0.16899825134725707 -0.3970176711935925 0.5410223945016188 0.0
O O 0.23588943657818318 -0.665889077305653 0.3140260608909398 0.0
O O 0.17696571754866838 -0.632294622728998 0.4197523377178366 0.0
O O 0.21304750741087353 -0.4287546061676933 0.4646409342850262 0.0
O O 0.3036311295446113 -0.2912128678328795 0.41084709073376446 0.0
O O 0.3664685802013603 -0.4102613997038029 0.46121358906249704 0.0
O O 0.32033457722350267 -0.4239091313754568 0.25606634435240266 0.0
O O 0.3683819693188619 -0.6328340912615212 0.2334495464335351 0.0
O O 0.3217878205124022 -0.9537954191241784 0.3819994648503503 0.0
O O 0.23582768543167582 -0.8812798262966124 0.3970389162130058 0.0
N N 0.11206135558325675 -0.6875462092426465 0.2618342092561138 0.0
N N -0.10631689193465535 -0.43235036404279964 -0.0008610619251927169 0.0
C C 0.23744588403271014 -0.5366916181054053 0.356915113504218 0.0
H H 0.23290688403271018 -0.44917161810540535 0.324213713504218 0.0
C C 0.29263388023101994 -0.5403361358207381 0.39256058620963286 0.0
H H 0.29297488023102 -0.5974061358207382 0.44125918620963284 0.0
C C 0.3242784427316181 -0.6334128663389359 0.3375449333940793 0.0
H H 0.35294944273161805 -0.6861828663389359 0.3661035333940793 0.0
C C 0.28163613333898374 -0.7361987174387162 0.3126295174169171 0.0
H H 0.2847271333389837 -0.7697787174387163 0.2588781174169171 0.0
C C 0.20545368425305366 -0.5325393901846684 0.4147324904136249 0.0
C C 0.32157672595204073 -0.3898741926658484 0.4137386976568834 0.0
C C 0.338163269471043 -0.5506366300969434 0.2732736169605451 0.0
C C 0.2766997756012748 -0.8759550935902217 0.3704837712207413 0.0
C C 0.10502741152401031 -0.564752535927595 0.24690079476699403 0.0
H H 0.1294763115240103 -0.501722535927595 0.271118994766994 0.0
C C 0.07077144968232808 -0.5068923740423908 0.20088554601594102 0.0
H H 0.06886024968232807 -0.4080623740423908 0.19154364601594107 0.0
C C 0.02705617172398031 -0.5884205485387571 0.15106837478537125 0.0
C C 0.031049796406422147 -0.7298227456858077 0.17669565003345541 0.0
H H 0.007818596406422153 -0.7959927456858077 0.15207565003345538 0.0
C C 0.07466851047690372 -0.7785876390875996 0.23242007188255534 0.0
H H 0.07737731047690372 -0.8765576390875999 0.2440000718825553 0.0
C C -0.07671228215728204 -0.33895282086198975 0.05264286294590955 0.0
H H -0.08710118215728205 -0.24372282086198968 0.05542096294590954 0.0
C C -0.03333094233495611 -0.40025348712933423 0.11173194442011608 0.0
H H -0.015959742334956104 -0.3356234871293343 0.1479119444201161 0.0
C C -0.010146070168419183 -0.530951014960922 0.11015698141633258 0.0
C C -0.04322902889623169 -0.6254142024110353 0.040246109700949224 0.0
H H -0.0331879288962317 -0.7203842024110354 0.03531430970094923 0.0
C C -0.07903835347707372 -0.5676916348297808 0.002618765508308506 0.0
H H -0.09689725347707373 -0.6298616348297809 -0.0343730344916915 0.0
Zn Zn -0.17471227570789286 -0.7989464359580079 -0.8352716125396106 0.0
Zn Zn -0.16807583702732395 -0.38765868344472904 -1.0508389754892078 0.0
O O -0.23866378258430446 -0.6635503064020595 -0.8122725275791743 0.0
O O -0.17994990327635807 -0.6249341909957946 -0.9313519181155137 0.0
O O -0.21192459405646052 -0.4115740231996002 -0.9640712769545833 0.0
O O -0.3067916995773878 -0.27282714989600715 -0.9091497377905853 0.0
O O -0.36921750753616217 -0.41196555265723805 -0.9630574263714422 0.0
O O -0.3224993963406856 -0.42318561798354903 -0.7525946990874242 0.0
O O -0.36552925309415346 -0.631762233100477 -0.7248713041657022 0.0
O O -0.3180722220846033 -0.9495228092380718 -0.8814790016669283 0.0
O O -0.24544268484983733 -0.8950585519493642 -0.9012238504070946 0.0
N N -0.11084957037426366 -0.7060346264499316 -0.7614238776937977 0.0
N N 0.09616429609655038 -0.447518374605032 -0.5083472669151238 0.0
C C -0.24115192596282942 -0.5394514416586343 -0.8565132351467598 0.0
H H -0.2366129259628294 -0.45193144165863425 -0.8238118351467598 0.0
C C -0.29369833483821867 -0.5463905903289222 -0.893394486163393 0.0
H H -0.2940393348382187 -0.6034605903289222 -0.942093086163393 0.0
C C -0.3218969757789438 -0.6202761388340298 -0.8413811608925555 0.0
H H -0.3505679757789437 -0.6730461388340298 -0.8699397608925554 0.0
C C -0.2721264062805223 -0.7473965873114183 -0.8093499077933767 0.0
H H -0.2752174062805223 -0.7809765873114185 -0.7555985077933765 0.0
C C -0.20641479985533975 -0.532943767715493 -0.9241025857483117 0.0
C C -0.3198918471480707 -0.3974061210588747 -0.9181034518962151 0.0
C C -0.3344512851350622 -0.5635611700750208 -0.764608549052184 0.0
C C -0.2720050011249643 -0.8771946536537472 -0.8640049384307722 0.0
C C -0.1114895602905946 -0.5506225043649682 -0.7505128318853553 0.0
H H -0.1359384602905946 -0.4875925043649681 -0.7747310318853554 0.0
C C -0.07219862625896267 -0.4993231686456561 -0.7051910455037329 0.0
H H -0.07028742625896268 -0.4004931686456561 -0.695849145503733 0.0
C C -0.030618332856196345 -0.576209854313506 -0.6651624712162806 0.0
C C -0.038909718089430514 -0.7438316768716402 -0.6788770566817655 0.0
H H -0.015678518089430514 -0.8100016768716402 -0.6542570566817654 0.0
C C -0.07583853799327213 -0.7926996776070011 -0.7199248990115342 0.0
H H -0.07854733799327211 -0.8906696776070013 -0.7315048990115341 0.0
C C 0.07601425743009611 -0.35565836883869795 -0.5488534665251991 0.0
H H 0.08640315743009612 -0.26042836883869785 -0.5516315665251991 0.0
C C 0.03437212641993829 -0.3844881638948819 -0.6058254641910547 0.0
H H 0.017000926419938275 -0.31985816389488186 -0.6420054641910546 0.0
C C 0.015195540489786991 -0.5534271566866369 -0.601588877796156 0.0
C C 0.0399174637868963 -0.6335830705814601 -0.555182021019861 0.0
H H 0.029876363786896298 -0.7285530705814601 -0.5502502210198611 0.0
C C 0.0857397687014484 -0.5752529069118301 -0.49273707875054495 0.0
H H 0.10359866870144836 -0.6374229069118301 -0.45574527875054505 0.0
Zn Zn 0.6690307767745528 -0.294844921505422 0.3389882517547192 0.0
Zn Zn 0.6750130390139184 0.10971148330119637 0.5432423881089103 0.0
O O 0.7348053150225754 -0.14765494104761923 0.3025248674050197 0.0
O O 0.6840861926843599 -0.1430206402993548 0.4325918392443061 0.0
O O 0.7083680195650841 0.0800860309383892 0.4511314766757828 0.0
O O 0.7977973690749012 0.21227061913373266 0.39453069534354174 0.0
O O 0.8620626143300796 0.08943185557425602 0.4570139370830253 0.0
O O 0.8180459519808553 0.054507107373478456 0.2542639037195922 0.0
O O 0.8672933550369718 -0.11805735077891949 0.23116426950703192 0.0
O O 0.8120514005801228 -0.43873245724891685 0.3740850333270488 0.0
O O 0.733752814392311 -0.3911049631566698 0.3945990412588779 0.0
N N 0.616944854022265 -0.18714258354208815 0.26451885105520007 0.0
N N 0.39699339289808977 0.0690922192851201 0.004379800897066434 0.0
C C 0.7398334765488168 -0.022787681949207845 0.35161882792547794 0.0
H H 0.7352944765488167 0.06473231805079219 0.31891742792547795 0.0
C C 0.800140843646163 -0.05235573417307929 0.4087735190405356 0.0
H H 0.800481843646163 -0.10942573417307926 0.45747211904053564 0.0
C C 0.8214162112557453 -0.13298728476576424 0.340423502803674 0.0
H H 0.8500872112557453 -0.18575728476576422 0.36898210280367394 0.0
C C 0.7719587886093416 -0.23458533275294333 0.3099716123814182 0.0
H H 0.7750497886093416 -0.2681653327529434 0.2562202123814182 0.0
C C 0.7014526272698722 -0.03564965396825634 0.4162756916391181 0.0
C C 0.8277417230700942 0.09608901953222716 0.4200566071744308 0.0
C C 0.8288676425842242 -0.059828309328206965 0.26426444514493663 0.0
C C 0.7743582406373182 -0.3760084179947549 0.36174848485602235 0.0
C C 0.6003525785627277 -0.05013224788269864 0.246596139460872 0.0
H H 0.6248014785627277 0.012897752117301382 0.270814339460872 0.0
C C 0.5604900666066195 -0.004502736216771331 0.19585749153657603 0.0
H H 0.5585788666066194 0.09432726378322864 0.18651559153657604 0.0
C C 0.529348654770535 -0.07818253489971838 0.1584199445360853 0.0
C C 0.5325427250542943 -0.23482903091827298 0.17465762498988938 0.0
H H 0.5093115250542943 -0.3009990309182729 0.15003762498988937 0.0
C C 0.5776557404047447 -0.27393556119261625 0.23153318146871602 0.0
H H 0.5803645404047447 -0.37190556119261625 0.24311318146871605 0.0
C C 0.4245170918790434 0.14450234735672016 0.057851608904130616 0.0
H H 0.4141281918790434 0.23973234735672025 0.060629708904130615 0.0
C C 0.46947148842889946 0.10274192010883225 0.10134788159599309 0.0
H H 0.48684268842889944 0.16737192010883223 0.1375278815959931 0.0
C C 0.48591565892278243 -0.053494499257432306 0.10790689540500208 0.0
C C 0.45697599241252806 -0.13664496077213859 0.05561957361884912 0.0
H H 0.46701709241252803 -0.2316149607721386 0.05068777361884913 0.0
C C 0.41457156115172533 -0.06409679397446301 -0.003166198848705238 0.0
H H 0.3967126611517254 -0.12626679397446297 -0.04015799884870524 0.0
Zn Zn 0.3311942157395721 -0.2979313028196803 -0.8434671745199861 0.0
Zn Zn 0.33345693038363455 0.10500467814075358 -1.0512928676638822 0.0
O O 0.2689877209131374 -0.1633737697267005 -0.802675724835485 0.0
O O 0.3242187477575326 -0.13347924756297552 -0.9278667354659555 0.0
O O 0.2900160442689942 0.07300492235247802 -0.9563060569048186 0.0
O O 0.19785865134046804 0.21980738553438037 -0.9026000546749627 0.0
O O 0.1365361673322029 0.09787856014635994 -0.9672529712327934 0.0
O O 0.17790695512127697 0.060580858920537606 -0.74923794098809 0.0
O O 0.14080611111797323 -0.12580392746452812 -0.7231005918649526 0.0
O O 0.1848550186279941 -0.45061717078013436 -0.869802560624919 0.0
O O 0.259465205631437 -0.384735141367738 -0.8947189202599373 0.0
N N 0.3813839178918597 -0.19788968175223465 -0.7646815610073908 0.0
N N 0.60573078634965 0.06419379224894932 -0.5026649133918001 0.0
C C 0.25433884515557226 -0.028679162062226607 -0.8579502507223432 0.0
H H 0.2588778451555723 0.05884083793777342 -0.8252488507223432 0.0
C C 0.20263479639682208 -0.037500112715801115 -0.8938484340948238 0.0
H H 0.20229379639682207 -0.09457011271580107 -0.9425470340948239 0.0
C C 0.18074356308621967 -0.13949327415990015 -0.8443379622805595 0.0
H H 0.1520725630862197 -0.19226327415990013 -0.8728965622805595 0.0
C C 0.21930398576500776 -0.230334567211825 -0.8172201038606196 0.0
H H 0.21621298576500778 -0.26391456721182505 -0.7634687038606195 0.0
C C 0.2898182117084854 -0.04142981083375874 -0.9178067007226158 0.0
C C 0.17669238195607073 0.09480484532366662 -0.9173226110731377 0.0
C C 0.1706680407989727 -0.053190624941822646 -0.7670977311239846 0.0
C C 0.22495150823278792 -0.3861166634743882 -0.8631258861151889 0.0
C C 0.39929917979303364 -0.06624889685701565 -0.742660365799003 0.0
H H 0.3748502797930336 -0.0032188968570156314 -0.7668785657990029 0.0
C C 0.43364312358824597 -0.011797512506285635 -0.6915716660222903 0.0
H H 0.435554323588246 0.08703248749371434 -0.6822297660222904 0.0
C C 0.466136030786522 -0.08918987449883854 -0.6659246220504654 0.0
C C 0.46858082886168495 -0.23030063687394414 -0.6800999300575642 0.0
H H 0.49181202886168507 -0.2964706368739441 -0.6554799300575641 0.0
C C 0.4260610442840784 -0.28528391122159696 -0.7262505796194162 0.0
H H 0.42335224428407847 -0.383253911221597 -0.7378305796194162 0.0
C C 0.5709271643255717 0.14898662140887747 -0.5560737201254745 0.0
H H 0.5813160643255718 0.2442166214088775 -0.5588518201254745 0.0
C C 0.5309009316378741 0.10585996354041687 -0.6063676705724836 0.0
H H 0.5135297316378742 0.17048996354041684 -0.6425476705724836 0.0
C C 0.5123584209064684 -0.03006452044965166 -0.602471692654174 0.0
C C 0.5393648486570259 -0.12942934332942208 -0.5507053546422146 0.0
H H 0.5293237486570259 -0.22439934332942205 -0.5457735546422148 0.0
C C 0.5777734885816922 -0.06604857602404676 -0.5072757759736366 0.0
H H 0.5956323885816922 -0.12821857602404674 -0.4702839759736367 0.0
