_cell_length_a 27.1013
_cell_length_b 9.27321
_cell_length_c 16.979215
_cell_angle_alpha 90.0
_cell_angle_beta 99.1565
_cell_angle_gamma 90.0
_symmetry_space_group_name_H-M         'P 1'
_symmetry_Int_Tables_number            1
loop_
_symmetry_equiv_pos_as_xyz
   'x, y, z'
                         
loop_
_atom_site_label
_atom_site_type_symbol
_atom_site_fract_x 
_atom_site_fract_y
_atom_site_fract_z
_atom_site_charge
Zn Zn -0.17059578644318252 0.7918593543730875 -0.3392804414195189 0.0
Zn Zn -0.17186966235054138 0.39925558782160203 -0.5575786311156897 0.0
O O -0.23555325097162438 0.6626389864131687 -0.30045592165379353 0.0
O O -0.1824820173120302 0.6367057675244611 -0.42855065414900767 0.0
O O -0.20849445120909493 0.40844686895707244 -0.4622845906525456 0.0
O O -0.3001162513265033 0.273832959309965 -0.397698438219975 0.0
O O -0.3587728293284542 0.4171744086097846 -0.4639348923028922 0.0
O O -0.3175578179157783 0.4284395754807118 -0.2602474131479534 0.0
O O -0.3608332432780506 0.6288955097633645 -0.23047219927707813 0.0
O O -0.3113580015908304 0.9457655035317843 -0.37302292361728595 0.0
O O -0.24365648987854557 0.8913542910189396 -0.3958293733093981 0.0
N N -0.1123246487060128 0.6991552669716552 -0.2610960853152866 0.0
N N 0.10355341164495271 0.44322755095373556 0.004058598441346553 0.0
C C -0.24148879809434304 0.5412642438781298 -0.3577017912264712 0.0
H H -0.23694979809434305 0.45374424387812984 -0.32500039122647123 0.0
C C -0.29996682048839995 0.5455771090091821 -0.4027143393131858 0.0
H H -0.3003078204884 0.6026471090091822 -0.4514129393131858 0.0
C C -0.32219533019157376 0.6263526058913607 -0.3337144157608194 0.0
H H -0.35086633019157376 0.6791226058913605 -0.3622730157608194 0.0
C C -0.2830784479199844 0.7402172172782954 -0.30760488854417156 0.0
H H -0.2861694479199844 0.7737972172782954 -0.2538534885441716 0.0
C C -0.20856070503530424 0.5326007380178279 -0.42698431969902795 0.0
C C -0.32734540514405047 0.41194734538898375 -0.42432942492305037 0.0
C C -0.3314243984984346 0.5518424831141739 -0.26457719352323505 0.0
C C -0.2817257679228406 0.8626945558804205 -0.36688831528553406 0.0
C C -0.10762961972354608 0.5712220212782337 -0.2522504295181532 0.0
H H -0.13207851972354606 0.5081920212782337 -0.2764686295181532 0.0
C C -0.06177655784402681 0.49586194102359704 -0.20002207931977578 0.0
H H -0.05986535784402681 0.3970319410235969 -0.19068017931977582 0.0
C C -0.034749391629121405 0.5833471644716162 -0.15940177913298634 0.0
C C -0.03315418848093437 0.7292214458860506 -0.18196729101066875 0.0
H H -0.009922988480934376 0.7953914458860506 -0.15734729101066872 0.0
C C -0.07254464242977686 0.7925254754707894 -0.23306924916131191 0.0
H H -0.07525344242977686 0.8904954754707897 -0.2446492491613119 0.0
C C 0.07611934634553807 0.3586883435303193 -0.05566249908627514 0.0
H H 0.0865082463455381 0.2634583435303192 -0.058440599086275136 0.0
C C 0.034781457783734454 0.4006642470603144 -0.11275576062793259 0.0
H H 0.017410257783734458 0.33603424706031443 -0.1489357606279326 0.0
C C 0.015751502432454805 0.5308426508826732 -0.10360774356941944 0.0
C C 0.043620306599802164 0.6238909419748012 -0.04984127671803289 0.0
H H 0.03357920659980217 0.7188609419748012 -0.044909476718032894 0.0
C C 0.08739522396764836 0.5723146164738843 -0.005657082580660851 0.0
H H 0.10525412396764837 0.6344846164738842 0.03133471741933915 0.0
Zn Zn 0.17152177942298374 0.7858128182636457 0.8402201705396164 0.0
Zn Zn 0.16758503409331918 0.4003546646628039 1.0504652616788095 0.0
O O 0.23152114084153072 0.644904394450785 0.8093909797126569 0.0
O O 0.18258522915851041 0.630058727907942 0.9224950310608633 0.0
O O 0.21192325554451819 0.41890587248661515 0.9549272388195614 0.0
O O 0.30266288243061595 0.28384797976492754 0.9064053349480359 0.0
O O 0.3676672373374595 0.40943970699071214 0.9629463634958239 0.0
O O 0.3140496273399764 0.42791039791461094 0.745755321810835 0.0
O O 0.3618343624716836 0.617435436857284 0.7274198029318026 0.0
O O 0.31608432289454097 0.9538440218391511 0.880628060800866 0.0
O O 0.24078934917278258 0.8860316463279472 0.9070634659182482 0.0
N N 0.11532876895606904 0.6943879936633789 0.7704502178107416 0.0
N N -0.10310511796037679 0.44644898344956063 0.49967239329253305 0.0
C C 0.24382633417938243 0.5254115450770884 0.852145930544786 0.0
H H 0.23928733417938242 0.43789154507708844 0.819444530544786 0.0
C C 0.2979297047013981 0.5389714974193286 0.903224142749303 0.0
H H 0.2982707047013981 0.5960414974193285 0.9519227427493029 0.0
C C 0.31940245120093214 0.6389748260897433 0.8377838764176455 0.0
H H 0.3480734512009322 0.6917448260897432 0.8663424764176455 0.0
C C 0.2817473149967982 0.7364391671824844 0.8198340149128488 0.0
H H 0.28483831499679824 0.7700191671824844 0.7660826149128487 0.0
C C 0.20148955669075636 0.5227482478406813 0.923774100527454 0.0
C C 0.32496307029223753 0.40086287964327205 0.9150600209609998 0.0
C C 0.33169207498658837 0.5693746124854244 0.7660542084662929 0.0
C C 0.2840439328808504 0.8622110825066248 0.8705541331484324 0.0
C C 0.11239068254371763 0.552645202067994 0.7549816725085412 0.0
H H 0.1368395825437176 0.48961520206799397 0.7791998725085412 0.0
C C 0.06309958695729789 0.5026511180859007 0.6978131049531997 0.0
H H 0.06118838695729789 0.4038211180859007 0.6884712049531998 0.0
C C 0.029745679870754594 0.5775809152211817 0.6649872664203368 0.0
C C 0.03153204356518496 0.7401217141700455 0.6732296601402897 0.0
H H 0.008300843565184958 0.8062917141700454 0.6486096601402896 0.0
C C 0.07693629105219128 0.7770249910562417 0.7387660152525756 0.0
H H 0.07964509105219128 0.874994991056242 0.7503460152525756 0.0
C C -0.07450042177743166 0.3447398074625379 0.5496848663120174 0.0
H H -0.08488932177743166 0.2495098074625378 0.5524629663120174 0.0
C C -0.02731281386566439 0.3973354012778695 0.6077246973763485 0.0
H H -0.009941613865664391 0.3327054012778695 0.6439046973763485 0.0
C C -0.0092679886983892 0.525577886736762 0.6072429592754569 0.0
C C -0.04749531976878058 0.6220121576611574 0.5439713805843628 0.0
H H -0.037454219768780585 0.7169821576611574 0.539039580584363 0.0
C C -0.08046902338295082 0.5723228384137375 0.4983924347100016 0.0
H H -0.09832792338295084 0.6344928384137375 0.4614006347100017 0.0
Zn Zn 0.32907931512808947 1.292616594464448 -0.3481867668031672 0.0
Zn Zn 0.32612681856997455 0.8906764906696861 -0.5430017750147897 0.0
O O 0.25983888360991647 1.1616944202973079 -0.3085753693215315 0.0
O O 0.3273894620802788 1.1346719595591206 -0.43023684511489635 0.0
O O 0.2954053239297533 0.9036724733478576 -0.46130480492503095 0.0
O O 0.19637631240281417 0.7945535522461298 -0.40928136067231896 0.0
O O 0.13262252279810413 0.9185828421077743 -0.4681334468172245 0.0
O O 0.1852770318739124 0.9285056893794 -0.24712021636615025 0.0
O O 0.13973412534615728 1.112150310957776 -0.22518805328356511 0.0
O O 0.18297293674041232 1.451384565811779 -0.3731570424689935 0.0
O O 0.2594375477571084 1.3861612098149045 -0.3955942026068753 0.0
N N 0.38970759855725573 1.1916660437250728 -0.2559386809276813 0.0
N N 0.5948673599818404 0.9313213397842953 -0.0039847498628193916 0.0
C C 0.2564834159659928 1.0235997916678214 -0.35462023039735546 0.0
H H 0.26102241596599274 0.9360797916678213 -0.32191883039735547 0.0
C C 0.20627586432160147 1.0361640054544852 -0.39273069168040003 0.0
H H 0.20593486432160146 1.0932340054544851 -0.4414292916804 0.0
C C 0.17807864581570174 1.1292125877617054 -0.33995490047321536 0.0
H H 0.14940764581570173 1.1819825877617058 -0.36851350047321535 0.0
C C 0.21695609954382505 1.238772313220017 -0.312583250827433 0.0
H H 0.21386509954382507 1.272352313220017 -0.258831850827433 0.0
C C 0.293416689075727 1.040927484723684 -0.4231135776181092 0.0
C C 0.1815298126543704 0.9012501596693323 -0.42117341115407747 0.0
C C 0.16313301001083166 1.0471140416886873 -0.2694521994271191 0.0
C C 0.226269600885055 1.372590994665347 -0.3684168352381174 0.0
C C 0.3919918273752801 1.055897938912822 -0.2462265892693299 0.0
H H 0.36754292737528016 0.992867938912822 -0.2704447892693299 0.0
C C 0.43354503594676586 0.9953162046222888 -0.19432260715083294 0.0
H H 0.4354562359467658 0.8964862046222888 -0.18498070715083295 0.0
C C 0.4736551005786698 1.088180519899981 -0.1672469711318107 0.0
C C 0.46135840586878896 1.2437751895241353 -0.1779936171927002 0.0
H H 0.48458960586878885 1.3099451895241354 -0.1533736171927002 0.0
C C 0.42535104556805586 1.2842029836705307 -0.23792440249229282 0.0
H H 0.42264224556805585 1.3821729836705308 -0.2495044024922928 0.0
C C 0.5761663993768076 0.8446610848440634 -0.05524954751762794 0.0
H H 0.5865552993768075 0.7494310848440634 -0.058027647517627935 0.0
C C 0.5316387816299631 0.9080080517468009 -0.10922803989021385 0.0
H H 0.5142675816299632 0.8433780517468009 -0.14540803989021384 0.0
C C 0.5115676986655511 1.041356254035082 -0.1029796167601482 0.0
C C 0.5448382587886198 1.125710865809339 -0.05494500090639368 0.0
H H 0.5347971587886199 1.220680865809339 -0.05001320090639369 0.0
C C 0.5900651866149536 1.0705947696075317 -0.003215563732749182 0.0
H H 0.6079240866149537 1.1327647696075316 0.03377623626725082 0.0
Zn Zn 0.675732197804676 1.2916674228713256 0.8453341891239688 0.0
Zn Zn 0.6673928403887613 0.8908808031020812 1.0470787087606388 0.0
O O 0.7261348516210016 1.1657945819877078 0.80287447863338 0.0
O O 0.6811632854170618 1.1319160571220122 0.9261040009121941 0.0
O O 0.709242729421698 0.9023586378045292 0.959825369842019 0.0
O O 0.8019749194426918 0.7890990442737049 0.8973449917242763 0.0
O O 0.871490789987879 0.9068179165558339 0.9643820608327638 0.0
O O 0.8165720912565786 0.939105490743117 0.7457032006384404 0.0
O O 0.864764359536699 1.1232842603391568 0.7386656643327417 0.0
O O 0.8210992073592411 1.4339995350287973 0.8718526312916939 0.0
O O 0.7424459287094374 1.3844653001332599 0.8990413546708124 0.0
N N 0.6122935719574722 1.1946669284961686 0.7713264868326253 0.0
N N 0.4054148563821697 0.9353235960130111 0.5121114381665227 0.0
C C 0.7450822961742025 1.0365767881973005 0.8619833321977826 0.0
H H 0.7405432961742026 0.9490567881973005 0.8292819321977826 0.0
C C 0.7926913282907897 1.0361180476790692 0.9051115536444653 0.0
H H 0.7930323282907896 1.0931880476790692 0.9538101536444653 0.0
C C 0.8145551537204535 1.1375861032080294 0.8354681476398005 0.0
H H 0.8432261537204535 1.1903561032080296 0.8640267476398005 0.0
C C 0.776241575485989 1.2451847379204206 0.8134007750733403 0.0
H H 0.779332575485989 1.2787647379204208 0.7596493750733401 0.0
C C 0.7028923502158391 1.034140354816438 0.9203217961866195 0.0
C C 0.8256227049135922 0.8897016855065247 0.9218686998131057 0.0
C C 0.836927403366658 1.0470178296543617 0.771383443281678 0.0
C C 0.7735197804737048 1.3788069811351236 0.8629715519342455 0.0
C C 0.6115699674102184 1.0563090386744651 0.7447197948972708 0.0
H H 0.6360188674102184 0.993279038674465 0.7689379948972708 0.0
C C 0.5619529476070131 0.9966956860002543 0.7020643887239634 0.0
H H 0.560041747607013 0.8978656860002544 0.6927224887239634 0.0
C C 0.5348036479509287 1.0918270389930038 0.656925620413169 0.0
C C 0.5341563167454573 1.2310359462949116 0.6741440254126243 0.0
H H 0.5109251167454573 1.2972059462949117 0.6495240254126242 0.0
C C 0.578579509429716 1.2901217716552607 0.7321852788019593 0.0
H H 0.5812883094297161 1.388091771655261 0.7437652788019592 0.0
C C 0.4304344288022441 0.8537265350677475 0.5614320238503595 0.0
H H 0.42004552880224405 0.7584965350677475 0.5642101238503595 0.0
C C 0.4668742523863388 0.9066447741468493 0.6054006522538941 0.0
H H 0.4842454523863387 0.8420147741468494 0.641580652253894 0.0
C C 0.4822575852020269 1.0308713924172648 0.6107404358900107 0.0
C C 0.45969796907656174 1.1203486700408816 0.5461834895994827 0.0
H H 0.4697390690765617 1.2153186700408816 0.5412516895994828 0.0
C C 0.4206743456718204 1.0708432828937153 0.4980321672744584 0.0
H H 0.40281544567182037 1.1330132828937152 0.4610403672744586 0.0
Zn Zn 0.17348602487659656 -0.7908282929271461 0.3438595914192562 0.0
Zn Zn 0.16800828843975732 -0.39697602530955645 0.549475369004511 0.0
O O 0.2333794570168242 -0.6613160507581184 0.3040656739433312 0.0
O O 0.18097606862950585 -0.6476048377176677 0.4273828502174443 0.0
O O 0.2077690270893509 -0.4248614393578524 0.45994880519562137 0.0
O O 0.30220466681473 -0.28206678399473895 0.4077846454791552 0.0
O O 0.3660111956699164 -0.42456529811565163 0.468285395029638 0.0
O O 0.3209268307482977 -0.4341440739978534 0.2606531401123321 0.0
O O 0.3601917130764641 -0.6138437882960567 0.22157927572842492 0.0
O O 0.31389881553647137 -0.9325897342740942 0.37309833757088307 0.0
O O 0.24614928505735348 -0.8976105158388499 0.3973031138842885 0.0
N N 0.11435137053166879 -0.6939667429971004 0.2630492172461093 0.0
N N -0.1006753154210376 -0.4342263671144459 0.012705306956978133 0.0
C C 0.243140920217774 -0.5371409833004833 0.3618806757423693 0.0
H H 0.23860192021777402 -0.4496209833004834 0.3291792757423693 0.0
C C 0.30093680991493654 -0.5336346048689619 0.4008699959748395 0.0
H H 0.3012778099149365 -0.5907046048689619 0.4495685959748395 0.0
C C 0.32110919631556195 -0.6375166435645099 0.3398181179804034 0.0
H H 0.34978019631556195 -0.6902866435645099 0.3683767179804034 0.0
C C 0.2827233889331617 -0.7390484130696926 0.31277167481108537 0.0
H H 0.2858143889331617 -0.7726284130696928 0.25902027481108536 0.0
C C 0.20699045350418308 -0.5344137151936319 0.41516244260084556 0.0
C C 0.3230621665726735 -0.3882791797913332 0.4217639860057504 0.0
C C 0.3327618930262672 -0.5550506298681521 0.2594551563333103 0.0
C C 0.2733205336250399 -0.8618734187040475 0.3682938763934204 0.0
C C 0.10283455535886175 -0.5500063967168685 0.2520157092038566 0.0
H H 0.12728345535886174 -0.48697639671686843 0.27623390920385654 0.0
C C 0.0684962607698507 -0.48921317795005964 0.19102620906631984 0.0
H H 0.0665850607698507 -0.39038317795005967 0.18168430906631985 0.0
C C 0.026193555983938643 -0.5821401719805536 0.16357489305031508 0.0
C C 0.03287800137886716 -0.7253180186982681 0.17932219122056625 0.0
H H 0.00964680137886716 -0.791488018698268 0.15470219122056625 0.0
C C 0.07756379216437931 -0.7959716792028818 0.2336712536794967 0.0
H H 0.0802725921643793 -0.8939416792028818 0.24525125367949668 0.0
C C -0.07188834533154392 -0.3609306075446171 0.0556976205286651 0.0
H H -0.08227724533154393 -0.26570060754461705 0.05847572052866509 0.0
C C -0.033432050232998736 -0.3887983386167705 0.10728199718752898 0.0
H H -0.016060850232998733 -0.3241683386167705 0.143461997187529 0.0
C C -0.010539701583073826 -0.5322596599405373 0.0991941821554445 0.0
C C -0.04132455942651623 -0.6285867074690525 0.049391830234339566 0.0
H H -0.031283459426516225 -0.7235567074690527 0.044460030234339566 0.0
C C -0.08969206072843573 -0.5794569412744904 -8.685464936802798e-05 0.0
H H -0.10755096072843573 -0.6416269412744905 -0.03707865464936803 0.0
Zn Zn -0.16937390442763206 -0.7880832485106734 -0.8393192287642817 0.0
Zn Zn -0.17331206258907766 -0.4056419721923543 -1.045383291477767 0.0
O O -0.2296746481423355 -0.6528304923030779 -0.8131064019278643 0.0
O O -0.17561572066519623 -0.6305246588029327 -0.916945953092122 0.0
O O -0.20828746655072183 -0.4094959452925172 -0.9662780114910561 0.0
O O -0.29975956113687974 -0.2944880153625362 -0.8959206732060937 0.0
O O -0.3688942457843391 -0.4208005577328002 -0.9642443608431552 0.0
O O -0.31475737526432784 -0.43445606089043104 -0.7595639006363846 0.0
O O -0.3638070232832918 -0.6304216393678026 -0.7270617567204218 0.0
O O -0.3125990240967183 -0.9391099565103475 -0.8741739387435252 0.0
O O -0.243681816156444 -0.8873932518286398 -0.8970204604401762 0.0
N N -0.10766614214574742 -0.6937683045830575 -0.7582243871187545 0.0
N N 0.09812108088251602 -0.4508374896706685 -0.506745211863071 0.0
C C -0.24760579548915326 -0.5249731287927903 -0.8601424987466749 0.0
H H -0.24306679548915325 -0.43745312879279036 -0.8274410987466749 0.0
C C -0.2939289918845675 -0.5478776462756798 -0.8988853246507672 0.0
H H -0.2942699918845675 -0.6049476462756798 -0.9475839246507671 0.0
C C -0.3160522897991505 -0.6336891513730407 -0.8397199913655439 0.0
H H -0.3447232897991505 -0.6864591513730406 -0.8682785913655439 0.0
C C -0.28114106028318203 -0.730938232349653 -0.8166562197620151 0.0
H H -0.28423206028318204 -0.7645182323496532 -0.762904819762015 0.0
C C -0.21016333144337843 -0.5261158001545512 -0.9196259424080466 0.0
C C -0.3261146389887752 -0.3978639421394289 -0.9331031137222127 0.0
C C -0.3411449707786221 -0.559577832869554 -0.768294621514568 0.0
C C -0.27147975895883325 -0.8697897209722179 -0.8597888905183071 0.0
C C -0.1071338649981105 -0.5616435156614089 -0.7491594966866065 0.0
H H -0.1315827649981105 -0.49861351566140893 -0.7733776966866065 0.0
C C -0.06928494874869395 -0.4856478711533763 -0.7021610645488641 0.0
H H -0.06737374874869395 -0.3868178711533763 -0.692819164548864 0.0
C C -0.027492768101037755 -0.5993630398289141 -0.6625931461333542 0.0
C C -0.02995784501509659 -0.7360972557635945 -0.6775172361970326 0.0
H H -0.006726645015096597 -0.8022672557635945 -0.6528972361970325 0.0
C C -0.07682490324294107 -0.772000737733961 -0.730432086189469 0.0
H H -0.07953370324294107 -0.8699707377339614 -0.742012086189469 0.0
C C 0.07390754431739639 -0.3452604426377529 -0.5615789708921273 0.0
H H 0.08429644431739643 -0.25003044263775287 -0.5643570708921273 0.0
C C 0.027529969035629025 -0.382387787515358 -0.610110427270365 0.0
H H 0.010158769035629013 -0.317757787515358 -0.6462904272703651 0.0
C C 0.022134793538427053 -0.5422483033634644 -0.6026972761080873 0.0
C C 0.04041981576906726 -0.6319515101852549 -0.5551655388982747 0.0
H H 0.03037871576906725 -0.726921510185255 -0.5502337388982749 0.0
C C 0.08727278739038624 -0.5825116716484643 -0.4999401763449436 0.0
H H 0.10513168739038625 -0.6446816716484642 -0.4629483763449437 0.0
Zn Zn 0.6751600493687591 -0.29929548987717014 0.3349306637633028 0.0
Zn Zn 0.6714569324601063 0.11096693603542065 0.5456610622051562 0.0
O O 0.7331784719870702 -0.16395697059983289 0.3027192010643646 0.0
O O 0.6758250557570649 -0.14168635227948617 0.4229641131576895 0.0
O O 0.7095491940104893 0.0852293278303688 0.4499919796360716 0.0
O O 0.8050623480409406 0.207437068091375 0.4100635536736012 0.0
O O 0.8632613496551561 0.09797324167819382 0.4653911152248725 0.0
O O 0.8229509790521476 0.0645197172730728 0.25237768191175003 0.0
O O 0.8597441007831302 -0.12726601305320837 0.22238662275762963 0.0
O O 0.8171553268986782 -0.4450353420592247 0.36962707918034815 0.0
O O 0.7352982150535441 -0.3932650123843217 0.39986828945964226 0.0
N N 0.6089951372468828 -0.1908914516458085 0.25753051360594326 0.0
N N 0.39675369889813233 0.05283092862564444 0.002771140569762709 0.0
C C 0.7372354704768659 -0.03696211525274955 0.3554377553355754 0.0
H H 0.7326964704768659 0.05055788474725049 0.32273635533557543 0.0
C C 0.7923661335949396 -0.035883935271537035 0.3960094296001794 0.0
H H 0.7927071335949395 -0.09295393527153699 0.4447080296001794 0.0
C C 0.8202240087986982 -0.1278511749081342 0.3456071905708034 0.0
H H 0.8488950087986983 -0.18062117490813417 0.37416579057080335 0.0
C C 0.7751286587343305 -0.24137553128852401 0.31016267211658793 0.0
H H 0.7782196587343304 -0.27495553128852407 0.256411272116588 0.0
C C 0.7028436751368639 -0.02620840444888333 0.40959687435804465 0.0
C C 0.8229867129995482 0.08807945441095422 0.42323350136394394 0.0
C C 0.830060024015873 -0.06463918420732052 0.26494375830851 0.0
C C 0.7776743594226201 -0.3614204001689379 0.3607537830264103 0.0
C C 0.6068360364869643 -0.04974555491209322 0.24556589510743274 0.0
H H 0.6312849364869642 0.013284445087906813 0.26978409510743273 0.0
C C 0.5705498304888094 0.0002359678829952984 0.20519681488210656 0.0
H H 0.5686386304888091 0.09906596788299527 0.1958549148821066 0.0
C C 0.5283899954079866 -0.09603039857015318 0.15630706987303394 0.0
C C 0.5397701887240467 -0.23902287610811593 0.1707793496886383 0.0
H H 0.5165389887240468 -0.30519287610811585 0.1461593496886383 0.0
C C 0.5805534407977739 -0.29484530262939046 0.23450960995981546 0.0
H H 0.5832622407977741 -0.39281530262939046 0.24608960995981546 0.0
C C 0.4330859438982603 0.14478879242236634 0.061128082435628166 0.0
H H 0.4226970438982603 0.24001879242236634 0.06390618243562815 0.0
C C 0.4619790941574815 0.10482810432388102 0.10690663525181232 0.0
H H 0.47935029415748154 0.169458104323881 0.1430866352518123 0.0
C C 0.48088982886980347 -0.03618689739903736 0.09817424934005074 0.0
C C 0.45896180296741085 -0.13928158188017256 0.05417002832546177 0.0
H H 0.4690029029674108 -0.23425158188017253 0.04923822832546177 0.0
C C 0.4137587181031148 -0.07714652733283599 -0.0051028038268567475 0.0
H H 0.39589981810311486 -0.13931652733283592 -0.04209460382685675 0.0
Zn Zn 0.3242927284234669 -0.2960883141117465 -0.8473860488451955 0.0
Zn Zn 0.3328196618495855 0.1047784992662753 -1.0505821860211475 0.0
O O 0.2701297011119861 -0.1673800471438268 -0.8106582109647739 0.0
O O 0.3172485845715316 -0.13396394318456753 -0.9189091610950376 0.0
O O 0.2929210968138826 0.09444962348375874 -0.9640560560015419 0.0
O O 0.19704314898070524 0.21035025161874293 -0.8965296325664327 0.0
O O 0.1377336513611689 0.09776572879752166 -0.9711908217351949 0.0
O O 0.18486411015753276 0.06166983676508958 -0.7520671924732855 0.0
O O 0.13213796959747956 -0.11325036256985643 -0.7302796118777537 0.0
O O 0.1830436573913671 -0.4368648363389835 -0.8714624802971795 0.0
O O 0.26073121315712217 -0.38057111600619487 -0.8991034791598262 0.0
N N 0.38663509734798535 -0.19652237634251732 -0.7708171736694511 0.0
N N 0.6002951267067876 0.06874556825606207 -0.5003930991207872 0.0
C C 0.25325528717486284 -0.036526387260257295 -0.8585398693873186 0.0
H H 0.2577942871748628 0.05099361273974273 -0.8258384693873186 0.0
C C 0.20338410491836728 -0.034556649396108516 -0.9006725239554533 0.0
H H 0.20304310491836727 -0.09162664939610846 -0.9493711239554533 0.0
C C 0.17529330859820633 -0.13079470071149857 -0.8433850394884969 0.0
H H 0.1466223085982063 -0.18356470071149855 -0.8719436394884968 0.0
C C 0.21965094717065314 -0.24138008548503107 -0.8080738086520531 0.0
H H 0.2165599471706531 -0.2749600854850311 -0.7543224086520529 0.0
C C 0.29540303939610274 -0.031058398544080212 -0.9131401943727578 0.0
C C 0.17961398963145103 0.10820775856853143 -0.9280625297721127 0.0
C C 0.16741602971585634 -0.06254682504381144 -0.7656807666480819 0.0
C C 0.22198275751524793 -0.3691204392332855 -0.8676568192157854 0.0
C C 0.39534911810857165 -0.06303726928826427 -0.7479459231411169 0.0
H H 0.37090021810857166 -7.269288264238489e-06 -0.7721641231411168 0.0
C C 0.42820229096654494 0.007626942696287791 -0.6960507888375094 0.0
H H 0.430113490966545 0.10645694269628776 -0.6867088888375094 0.0
C C 0.46757877208278503 -0.10060449413961665 -0.6616544627564417 0.0
C C 0.4692360348472179 -0.24318253769514162 -0.6708794912082272 0.0
H H 0.4924672348472178 -0.30935253769514154 -0.6462594912082271 0.0
C C 0.41752289990781444 -0.28016249206530225 -0.7374106221634862 0.0
H H 0.4148140999078144 -0.37813249206530225 -0.7489906221634861 0.0
C C 0.5726291609985789 0.16387471701392017 -0.5612087054820721 0.0
H H 0.5830180609985789 0.2591047170139201 -0.5639868054820721 0.0
C C 0.5329587317473484 0.11646052456674272 -0.6094534089704643 0.0
H H 0.5155875317473485 0.1810905245667427 -0.6456334089704643 0.0
C C 0.5165985960035412 -0.04091344840845685 -0.5963872017114763 0.0
C C 0.5466135414029318 -0.1218634852379598 -0.5484542350332364 0.0
H H 0.5365724414029319 -0.21683348523795978 -0.5435224350332366 0.0
C C 0.5788383090218467 -0.0728752734098664 -0.5007339638732645 0.0
H H 0.5966972090218466 -0.13504527340986636 -0.4637421638732646 0.0
