_cell_length_a 27.1013
_cell_length_b 9.27321
_cell_length_c 16.979215
_cell_angle_alpha 90.0
_cell_angle_beta 99.1565
_cell_angle_gamma 90.0
_symmetry_space_group_name_H-M         'P 1'
_symmetry_Int_Tables_number            1
loop_
_symmetry_equiv_pos_as_xyz
   'x, y, z'
                         
loop_
_atom_site_label
_atom_site_type_symbol
_atom_site_fract_x 
_atom_site_fract_y
_atom_site_fract_z
_atom_site_charge
Zn Zn -0.16980217473405493 0.7811444756789664 -0.3355104605961359 0.0
Zn Zn -0.1738478278558901 0.38746454266334707 -0.5554489658271318 0.0
O O -0.23084850231745946 0.6658544293082279 -0.2986980789703817 0.0
O O -0.18153444629687732 0.6383071347558499 -0.4280147762932042 0.0
O O -0.20601042130958955 0.400415742929112 -0.46559853381901395 0.0
O O -0.30299946246863146 0.2724144155655931 -0.396181392595795 0.0
O O -0.36312973730388515 0.4142528262263412 -0.46206023209538566 0.0
O O -0.3226367445957624 0.42628904467614553 -0.2571340139229139 0.0
O O -0.36220327704864974 0.6236987997205695 -0.22345306736902226 0.0
O O -0.3224064072708349 0.9590454598511818 -0.37982002811996635 0.0
O O -0.24629320492493423 0.8937083405844047 -0.3942587559701115 0.0
N N -0.10871242151675138 0.6831119232510741 -0.2610405937030012 0.0
N N 0.0990414826246103 0.45245394646277187 -0.011506613460165406 0.0
C C -0.2460789865867372 0.5427165783553362 -0.3517952448251409 0.0
H H -0.24153998658673723 0.45519657835533617 -0.3190938448251409 0.0
C C -0.29636559044269056 0.5401194261936358 -0.3887737177832255 0.0
H H -0.29670659044269054 0.5971894261936359 -0.43747231778322554 0.0
C C -0.3235966974040919 0.6322092266860541 -0.34271844997586026 0.0
H H -0.35226769740409186 0.684979226686054 -0.37127704997586025 0.0
C C -0.2771777287325018 0.7323699759948696 -0.3096582288701279 0.0
H H -0.2802687287325018 0.7659499759948698 -0.25590682887012794 0.0
C C -0.2099012432559208 0.5264339778926066 -0.4131341063588561 0.0
C C -0.32332493123234424 0.38472868937014215 -0.4253564956385625 0.0
C C -0.32982174054543445 0.5483186344822855 -0.27093107566735963 0.0
C C -0.27709407768599104 0.8582145411510971 -0.36634228387195933 0.0
C C -0.10972615590280721 0.5636918894545825 -0.24802529840443854 0.0
H H -0.1341750559028072 0.5006618894545825 -0.27224349840443857 0.0
C C -0.06984185701480913 0.5122730574193106 -0.20105891209811033 0.0
H H -0.06793065701480912 0.4134430574193106 -0.19171701209811035 0.0
C C -0.03142100848133416 0.5863631941975933 -0.15597912037523695 0.0
C C -0.04109619271232755 0.7502297581716565 -0.1770212905041419 0.0
H H -0.017864992712327547 0.8163997581716564 -0.15240129050414186 0.0
C C -0.0737437267469545 0.785073705258843 -0.23926054154101659 0.0
H H -0.0764525267469545 0.8830437052588431 -0.2508405415410166 0.0
C C 0.07606232412464406 0.34578855781188894 -0.05041400259033049 0.0
H H 0.08645122412464407 0.2505585578118889 -0.053192102590330484 0.0
C C 0.025592785433784404 0.39044064806540363 -0.10740601955008178 0.0
H H 0.008221585433784404 0.3258106480654037 -0.14358601955008177 0.0
C C 0.020885404917463636 0.5303024801748853 -0.10857235009392896 0.0
C C 0.04178643207733714 0.6159573176447217 -0.04712253975464574 0.0
H H 0.031745332077337145 0.7109273176447217 -0.04219073975464575 0.0
C C 0.08479983401319845 0.572648504421113 0.008733263214079292 0.0
H H 0.10265873401319846 0.634818504421113 0.04572506321407929 0.0
Zn Zn 0.178476161228346 0.788077953962391 0.8398654923624597 0.0
Zn Zn 0.17134311361662008 0.40788974972201747 1.0489375997957218 0.0
O O 0.23633538699164433 0.6660850957001144 0.8113740627977214 0.0
O O 0.1793289968398257 0.6287060845853469 0.9138975209570407 0.0
O O 0.20697358246770234 0.40218741147671355 0.9533371638936959 0.0
O O 0.3062720063231325 0.28892515010573755 0.9048727914482017 0.0
O O 0.36372355183829397 0.3978331455863151 0.9670165648389731 0.0
O O 0.3147316648288636 0.44731421603544075 0.7524368944800046 0.0
O O 0.36098162100518766 0.6307356081095539 0.7339421968148098 0.0
O O 0.3147934085730326 0.9475740059232678 0.8827034472852742 0.0
O O 0.24215673056394113 0.8840488455119931 0.8976486288017772 0.0
N N 0.11875990755888019 0.6926364589279652 0.764353342169943 0.0
N N -0.09997258503521157 0.4206565828030351 0.5070820021772497 0.0
C C 0.24701880424978379 0.5167372903372315 0.8633804411970362 0.0
H H 0.24247980424978377 0.42921729033723144 0.8306790411970362 0.0
C C 0.30106787401995433 0.5482403282867254 0.9015868607363792 0.0
H H 0.3014088740199543 0.6053103282867254 0.9502854607363792 0.0
C C 0.31439068329814207 0.6387204032978592 0.8418373592077479 0.0
H H 0.3430616832981421 0.6914904032978592 0.8703959592077479 0.0
C C 0.2801637433155611 0.7266139437581912 0.8044624732460248 0.0
H H 0.28325474331556105 0.7601939437581914 0.7507110732460246 0.0
C C 0.20418738909161552 0.5235169622603166 0.9181832664196605 0.0
C C 0.32344419074968256 0.4042660412137644 0.9243935660999126 0.0
C C 0.33324580153093925 0.5495235099268999 0.7731782092367652 0.0
C C 0.27424077647738637 0.8724555047528414 0.8707369831943335 0.0
C C 0.10041005453827785 0.5646314802851478 0.7489599787660864 0.0
H H 0.12485895453827783 0.5016014802851477 0.7731781787660864 0.0
C C 0.06631087506215294 0.5074627080497209 0.698983573594988 0.0
H H 0.06439967506215294 0.4086327080497209 0.689641673594988 0.0
C C 0.03225013041245785 0.5904429267131737 0.6536051743117778 0.0
C C 0.03869513591720023 0.7431553750298339 0.6753985274013368 0.0
H H 0.015463935917200243 0.8093253750298338 0.6507785274013367 0.0
C C 0.07940031347012605 0.783992815845534 0.7191345222687904 0.0
H H 0.08210911347012605 0.8819628158455344 0.7307145222687903 0.0
C C -0.0722941318323851 0.3624072455163071 0.5536144272688687 0.0
H H -0.08268303183238511 0.26717724551630706 0.5563925272688687 0.0
C C -0.032656370254953895 0.4006484940499682 0.608688049433866 0.0
H H -0.015285170254953894 0.3360184940499682 0.6448680494338661 0.0
C C -0.015399905769227637 0.5480257933916867 0.6134767555684963 0.0
C C -0.0366038809773288 0.6212336123450968 0.5504943019278385 0.0
H H -0.026562780977328802 0.7162036123450968 0.5455625019278386 0.0
C C -0.08674429266744053 0.5766135677285934 0.4964160419018003 0.0
H H -0.10460319266744052 0.6387835677285933 0.4594242419018004 0.0
Zn Zn 0.32463690221797936 1.3117381897931897 -0.3379300888587805 0.0
Zn Zn 0.3303620714226069 0.886705430180366 -0.546577995214709 0.0
O O 0.2668293116677625 1.1697589423412373 -0.29946104037997473 0.0
O O 0.3235665805536969 1.1365344501862378 -0.43069131070103467 0.0
O O 0.29486645453929705 0.916792118841207 -0.45653575983292516 0.0
O O 0.20155771208579817 0.7782142092585216 -0.4060481164552672 0.0
O O 0.13824332308167478 0.9104885216913466 -0.4619831217749585 0.0
O O 0.18295589873912418 0.9283524774622036 -0.2432005258053445 0.0
O O 0.14185909776939118 1.1195271924715895 -0.22566646731732318 0.0
O O 0.18620788865148985 1.4309155884833662 -0.3772232600716984 0.0
O O 0.25605662511164157 1.3954350871171965 -0.3913758126715816 0.0
N N 0.38979903788090103 1.1968289001682106 -0.255355659012867 0.0
N N 0.6016244425483624 0.9317244740068322 -0.001616918166188636 0.0
C C 0.25413953800713346 1.0256715867836566 -0.361728577154454 0.0
H H 0.2586785380071334 0.9381515867836565 -0.329027177154454 0.0
C C 0.20165106248444403 1.055528896016943 -0.39871941958586404 0.0
H H 0.20131006248444402 1.112598896016943 -0.4474180195858641 0.0
C C 0.17861242517100018 1.1426309221670574 -0.3407352269627063 0.0
H H 0.14994142517100015 1.1954009221670578 -0.36929382696270624 0.0
C C 0.22122785885879329 1.2259123979971933 -0.31191523047621195 0.0
H H 0.21813685885879325 1.2594923979971935 -0.25816383047621194 0.0
C C 0.29482540215472447 1.032464552840835 -0.42512420877739454 0.0
C C 0.17374527185116018 0.8959633175294293 -0.4145181323514513 0.0
C C 0.16244707347755108 1.0548778250431012 -0.2640394860312855 0.0
C C 0.22816451789299175 1.3673407513047728 -0.3635172536908992 0.0
C C 0.3929516680722297 1.0652213191455837 -0.25108071153429107 0.0
H H 0.36850276807222976 1.0021913191455838 -0.27529891153429104 0.0
C C 0.4330140769306619 0.9871857760146718 -0.20443026177814413 0.0
H H 0.43492527693066185 0.8883557760146719 -0.19508836177814415 0.0
C C 0.4723692033088678 1.088824994312012 -0.15769869742634401 0.0
C C 0.4620147075989058 1.2368476883646031 -0.1674509399946766 0.0
H H 0.48524590759890573 1.303017688364603 -0.1428309399946766 0.0
C C 0.4184619473084238 1.2861678008887971 -0.23426578997619654 0.0
H H 0.4157531473084237 1.384137800888797 -0.24584578997619652 0.0
C C 0.574694973175274 0.8600651404265891 -0.05853834339665458 0.0
H H 0.5850838731752741 0.7648351404265891 -0.06131644339665457 0.0
C C 0.5300742803641467 0.894784736377486 -0.11345150073057042 0.0
H H 0.5127030803641468 0.830154736377486 -0.14963150073057044 0.0
C C 0.5126741488018666 1.0477828838793724 -0.1132189281738284 0.0
C C 0.5431228860516663 1.119856288029284 -0.048055654668199235 0.0
H H 0.5330817860516662 1.2148262880292837 -0.043123854668199235 0.0
C C 0.5894948455744414 1.0716398531384173 0.0006355766622548332 0.0
H H 0.6073537455744414 1.1338098531384169 0.03762737666225483 0.0
Zn Zn 0.6748058932528054 1.3087702103409014 0.842444676240133 0.0
Zn Zn 0.6767840818816319 0.8865850912057063 1.0495334438548725 0.0
O O 0.7329666208700715 1.1533269553294034 0.8073540681227628 0.0
O O 0.6759292349618633 1.13801839956461 0.9143609700581565 0.0
O O 0.7051022734525803 0.9162425587012983 0.9667447163292433 0.0
O O 0.8004755806763348 0.78254388886336 0.9106264209282092 0.0
O O 0.866781887670461 0.9190852838136305 0.9631417707521136 0.0
O O 0.821504434515435 0.9285667994249603 0.753043409483671 0.0
O O 0.864900305543583 1.1261705693391975 0.7316401454849691 0.0
O O 0.8213262278401476 1.4322411392406034 0.8746242547834279 0.0
O O 0.7420374210264686 1.4023167306111368 0.9039264889866858 0.0
N N 0.6116608468894343 1.1925659762196799 0.7560379948143453 0.0
N N 0.3991518298968306 0.9245130208043415 0.4992085187471731 0.0
C C 0.7427375504005186 1.0375734568676493 0.8624142660300655 0.0
H H 0.7381985504005186 0.9500534568676493 0.8297128660300656 0.0
C C 0.7965483298629026 1.051427531935679 0.891923040994834 0.0
H H 0.7968893298629025 1.108497531935679 0.940621640994834 0.0
C C 0.8242918740781929 1.1445041866767178 0.8451956530052132 0.0
H H 0.8529628740781928 1.197274186676718 0.8737542530052131 0.0
C C 0.7815657244599141 1.2337902624622847 0.803779786317761 0.0
H H 0.7846567244599141 1.267370262462285 0.7500283863177608 0.0
C C 0.7089568548025392 1.026339313287757 0.9263727577305616 0.0
C C 0.8209862750653054 0.897523029658936 0.9289508588104634 0.0
C C 0.8290401830709394 1.0614571063898754 0.7679975808861907 0.0
C C 0.7763661333923144 1.3872856661562336 0.8633975882852705 0.0
C C 0.6073328554685486 1.0484006586826948 0.758217796986935 0.0
H H 0.6317817554685488 0.9853706586826946 0.7824359969869351 0.0
C C 0.5656252016342561 1.0012505395184081 0.696981854412055 0.0
H H 0.563714001634256 0.9024205395184082 0.6876399544120549 0.0
C C 0.5259694495896139 1.1036013196804637 0.65658712656778 0.0
C C 0.5382836373048367 1.2264971967750804 0.6863664297153346 0.0
H H 0.5150524373048367 1.2926671967750802 0.6617464297153345 0.0
C C 0.5743879151211554 1.2824742207642341 0.7326916724750493 0.0
H H 0.5770967151211553 1.3804442207642345 0.7442716724750492 0.0
C C 0.4323236122989528 0.8504526869000271 0.5539320516929452 0.0
H H 0.42193471229895274 0.7552226869000271 0.5567101516929452 0.0
C C 0.4720917388269384 0.890491418023765 0.6011434807115985 0.0
H H 0.48946293882693825 0.8258614180237651 0.6373234807115985 0.0
C C 0.48971934295770414 1.0417728995007334 0.6087337248140426 0.0
C C 0.4603829548175052 1.133442930317288 0.5491166035714246 0.0
H H 0.4704240548175052 1.2284129303172877 0.5441848035714247 0.0
C C 0.41813420412334196 1.0775679144326895 0.4969801824085329 0.0
H H 0.40027530412334206 1.1397379144326891 0.45998838240853307 0.0
Zn Zn 0.1733274308429388 -0.8055809173400486 0.3376408658306817 0.0
Zn Zn 0.16666997807315959 -0.39067558094292926 0.54734628580132 0.0
O O 0.232134851856898 -0.6594523658193442 0.30511672984461874 0.0
O O 0.17418006220347473 -0.6263531378338426 0.4202497266684972 0.0
O O 0.20632166496580626 -0.4145514045971419 0.45658415536119945 0.0
O O 0.2970107047674169 -0.28209848010497607 0.406484006756082 0.0
O O 0.36308987755136657 -0.4033807173918776 0.460400821757993 0.0
O O 0.3212684710105592 -0.42587926126781 0.25010337324823134 0.0
O O 0.35945807556976306 -0.6081233329082563 0.22967916573378439 0.0
O O 0.31640480640113094 -0.9329701922278134 0.37133571424360506 0.0
O O 0.24169103913277362 -0.9057209756010102 0.395957250896925 0.0
N N 0.11022788180854912 -0.6885593014951524 0.2707000423120038 0.0
N N -0.10387248555748227 -0.44093973782072315 -0.004842598908630133 0.0
C C 0.24312499460213385 -0.5223415631581765 0.35765798512911257 0.0
H H 0.23858599460213387 -0.43482156315817644 0.3249565851291126 0.0
C C 0.29118338573473995 -0.5302662699851726 0.3936823231377989 0.0
H H 0.2915243857347399 -0.5873362699851726 0.4423809231377989 0.0
C C 0.32252703416977496 -0.6386223852646259 0.34892462351326214 0.0
H H 0.3511980341697749 -0.6913923852646259 0.3774832235132621 0.0
C C 0.2734356108405781 -0.7368234114894275 0.3072276011231203 0.0
H H 0.27652661084057806 -0.7704034114894277 0.25347620112312036 0.0
C C 0.2046571267902872 -0.5114572535873264 0.4199138763779108 0.0
C C 0.32351172518724297 -0.3893299178183615 0.42656751400104986 0.0
C C 0.3392135688379406 -0.5686693200415402 0.2696591299095484 0.0
C C 0.27698386952238546 -0.8833693230199888 0.3703454912052141 0.0
C C 0.107881323465662 -0.5608538283067958 0.25929183115976795 0.0
H H 0.132330223465662 -0.4978238283067957 0.283510031159768 0.0
C C 0.06788964487428314 -0.5047785913469747 0.20616214532333807 0.0
H H 0.06597844487428314 -0.4059485913469747 0.1968202453233381 0.0
C C 0.02590942207876165 -0.5835453384980595 0.15099145409585576 0.0
C C 0.032689573228114145 -0.727832658947106 0.17066714650522719 0.0
H H 0.00945837322811415 -0.794002658947106 0.14604714650522718 0.0
C C 0.07634844220025455 -0.795743478853471 0.23050698000014325 0.0
H H 0.07905724220025455 -0.8937134788534711 0.24208698000014325 0.0
C C -0.07085396753070665 -0.3363538092244709 0.056821608393456007 0.0
H H -0.08124286753070664 -0.24112380922447083 0.059599708393456005 0.0
C C -0.031239056355013575 -0.38747065024165844 0.11476791977543983 0.0
H H -0.01386785635501357 -0.3228406502416585 0.15094791977543984 0.0
C C -0.009799676606274026 -0.5519505649318924 0.10856460942640649 0.0
C C -0.040969707814745446 -0.6137848184037378 0.043463348195182425 0.0
H H -0.030928607814745452 -0.7087548184037379 0.038531548195182425 0.0
C C -0.0847040146488586 -0.5732187819761503 -0.00985964477908548 0.0
H H -0.10256291464885861 -0.6353887819761503 -0.046851444779085476 0.0
Zn Zn -0.17776340068651947 -0.7815433414036228 -0.8443029752304407 0.0
Zn Zn -0.1741248057257453 -0.3921577207849802 -1.0565377803939802 0.0
O O -0.2349078997738323 -0.6641822811380965 -0.8149282578122848 0.0
O O -0.1810064104173464 -0.6334604802051482 -0.9231816080824662 0.0
O O -0.2056174782011348 -0.42203763841705266 -0.9588112494143342 0.0
O O -0.30023946632172255 -0.29650088323263596 -0.8982537882035218 0.0
O O -0.36579380813249973 -0.4056629834810831 -0.9618313536490354 0.0
O O -0.3161901222601102 -0.4243496288888615 -0.7539503785340692 0.0
O O -0.36423337914232434 -0.6148986298845645 -0.7364307787890028 0.0
O O -0.3152187148308671 -0.9613974820158602 -0.8684289630138624 0.0
O O -0.2361847652947337 -0.8999565986655713 -0.9004750073853147 0.0
N N -0.11107937631291219 -0.6972738267990439 -0.7619033431275136 0.0
N N 0.09915898580037415 -0.42440130646233104 -0.5077632835578282 0.0
C C -0.24256965196059854 -0.5238191561654428 -0.8534556778471308 0.0
H H -0.2380306519605985 -0.43629915616544285 -0.8207542778471308 0.0
C C -0.29302595004907483 -0.5403375220267105 -0.898681980797871 0.0
H H -0.2933669500490748 -0.5974075220267105 -0.947380580797871 0.0
C C -0.31726329596201214 -0.6323667523240861 -0.835209423033731 0.0
H H -0.34593429596201214 -0.6851367523240861 -0.863768023033731 0.0
C C -0.27900841095325163 -0.7297814809546631 -0.8071387252034958 0.0
H H -0.28209941095325164 -0.7633614809546632 -0.7533873252034956 0.0
C C -0.2069618124764381 -0.5132204838973458 -0.9237323303263856 0.0
C C -0.3292858422092165 -0.39910195224536976 -0.9282518941306587 0.0
C C -0.33512894806239396 -0.556863961618919 -0.7748054519668788 0.0
C C -0.2722780268617684 -0.8816162886529124 -0.8614219351698394 0.0
C C -0.10801898205893701 -0.5459807873831035 -0.7559299322274567 0.0
H H -0.132467882058937 -0.4829507873831035 -0.7801481322274567 0.0
C C -0.06746407740034903 -0.49559539571976957 -0.6956653253891059 0.0
H H -0.06555287740034903 -0.39676539571976954 -0.686323425389106 0.0
C C -0.03283236543806328 -0.6019711587422039 -0.6588051142499532 0.0
C C -0.0357834105074529 -0.7403469780692687 -0.674163033855394 0.0
H H -0.012552210507452907 -0.8065169780692687 -0.6495430338553939 0.0
C C -0.08048513151392506 -0.7791280003414208 -0.7209726131746718 0.0
H H -0.08319393151392504 -0.877098000341421 -0.7325526131746717 0.0
C C 0.07189908992235673 -0.3622192899447039 -0.5541324066341733 0.0
H H 0.08228798992235677 -0.2669892899447039 -0.5569105066341733 0.0
C C 0.026242395335321182 -0.3928237754127707 -0.604270604745714 0.0
H H 0.00887119533532117 -0.3281937754127707 -0.640450604745714 0.0
C C 0.014018210901051197 -0.5428673121944148 -0.5948052456556981 0.0
C C 0.04811615775007706 -0.625814031355866 -0.5471272439490272 0.0
H H 0.03807505775007705 -0.720784031355866 -0.5421954439490274 0.0
C C 0.08213898921077349 -0.5766228500860202 -0.49352457090547347 0.0
H H 0.0999978892107735 -0.6387928500860202 -0.45653277090547356 0.0
Zn Zn 0.6707071249876929 -0.2984846146596801 0.3529988706129363 0.0
Zn Zn 0.6707737205728163 0.09271165893772967 0.5538951310343257 0.0
O O 0.7291015776508057 -0.15019619487765623 0.30738708666662684 0.0
O O 0.6722546985923825 -0.131649616731642 0.42140292604842355 0.0
O O 0.7046896118011826 0.08892747549461306 0.45781035891241223 0.0
O O 0.8021772796348047 0.22404640573894063 0.4023003369352498 0.0
O O 0.8681799671775294 0.09231890820338184 0.47463765486851356 0.0
O O 0.81786908345927 0.0572184083350357 0.24653626568169656 0.0
O O 0.8607042690669199 -0.12566348280465997 0.23378225881730433 0.0
O O 0.8156562501752465 -0.4339550498493021 0.38218969471890546 0.0
O O 0.7351920909456481 -0.39197069919877997 0.4014386762268362 0.0
N N 0.6143471668929648 -0.19910394277286197 0.26902954233401843 0.0
N N 0.4035988336841494 0.05539250743603809 0.0012094506887388025 0.0
C C 0.7386019929285553 -0.03991186336180312 0.3563210248845757 0.0
H H 0.7340629929285553 0.04760813663819692 0.3236196248845757 0.0
C C 0.7915475604872757 -0.030557433359932225 0.39578484602427094 0.0
H H 0.7918885604872756 -0.08762743335993217 0.444483446024271 0.0
C C 0.8180186917817218 -0.1385071727853996 0.3496089909322494 0.0
H H 0.8466896917817218 -0.19127717278539957 0.37816759093224933 0.0
C C 0.7809260347418364 -0.2469083146491297 0.3099318574313068 0.0
H H 0.7840170347418364 -0.28048831464912977 0.25618045743130685 0.0
C C 0.7000733441252246 -0.01891273335848183 0.41516775878988266 0.0
C C 0.8218794023660542 0.11740581260990328 0.42225398490772004 0.0
C C 0.8391727861848784 -0.0692567718191533 0.26683973331178634 0.0
C C 0.7761333414202245 -0.3802801559236226 0.35755816970332105 0.0
C C 0.6046825027014137 -0.0665706141944716 0.2418014749465128 0.0
H H 0.6291314027014137 -0.0035406141944715986 0.2660196749465128 0.0
C C 0.5613761514250527 0.01510019188165867 0.19758771983665513 0.0
H H 0.5594649514250526 0.11393019188165864 0.18824581983665517 0.0
C C 0.5339532398168516 -0.0944476249081274 0.15932683118672133 0.0
C C 0.5330539068841299 -0.21781532015457833 0.1733573663393561 0.0
H H 0.50982270688413 -0.2839853201545783 0.14873736633935608 0.0
C C 0.5777394141008678 -0.28355640354126654 0.2258687210353686 0.0
H H 0.5804482141008678 -0.38152640354126655 0.23744872103536857 0.0
C C 0.4265146296909707 0.15119327533721907 0.056027922139013774 0.0
H H 0.41612572969097067 0.24642327533721917 0.05880602213901377 0.0
C C 0.46708841806154905 0.0935780622080297 0.10705375753874455 0.0
H H 0.4844596180615491 0.15820806220802966 0.14323375753874454 0.0
C C 0.48334821922089793 -0.02629102043555309 0.1008717692116675 0.0
C C 0.4580306160178067 -0.11426804823529271 0.05193372838785777 0.0
H H 0.4680717160178066 -0.2092380482352927 0.04700192838785778 0.0
C C 0.4145602558506493 -0.08954313893010335 0.0015543884252200582 0.0
H H 0.39670135585064936 -0.1517131389301033 -0.03543741157477995 0.0
Zn Zn 0.32918616457612054 -0.31428988085545045 -0.8392189068402439 0.0
Zn Zn 0.32948349995463466 0.10070228562169144 -1.0429937754304566 0.0
O O 0.26750296483835184 -0.16280122197304395 -0.8137472454068626 0.0
O O 0.3216702297477969 -0.12468370647756223 -0.9277558200997473 0.0
O O 0.2882344233795507 0.094759488266954 -0.9670002818078692 0.0
O O 0.19564345578231226 0.22582058470097416 -0.898575023755215 0.0
O O 0.13878827891690831 0.07582782915469578 -0.9578607658737622 0.0
O O 0.1859235374407478 0.06733873463732162 -0.7505950224071778 0.0
O O 0.13311151706454893 -0.1272795335154227 -0.7257124870609191 0.0
O O 0.18471640260004726 -0.45152141725279815 -0.877850651494852 0.0
O O 0.25371424017625255 -0.3819689172562815 -0.9032971119562911 0.0
N N 0.3939586439892254 -0.19762080088376424 -0.7672097273194782 0.0
N N 0.6047091918517653 0.06222885904678859 -0.5077319761224813 0.0
C C 0.26153082556502094 -0.03846269893657652 -0.8539561590152683 0.0
H H 0.2660698255650209 0.04905730106342351 -0.8212547590152683 0.0
C C 0.20626969485880634 -0.03780856268857465 -0.9067942706441701 0.0
H H 0.20592869485880633 -0.09487856268857461 -0.95549287064417 0.0
C C 0.17730879570811678 -0.1456281417144743 -0.8464267446164306 0.0
H H 0.1486377957081168 -0.19839814171447429 -0.8749853446164306 0.0
C C 0.22401078839697594 -0.2296164707292173 -0.8027234966978636 0.0
H H 0.22091978839697599 -0.2631964707292173 -0.7489720966978635 0.0
C C 0.29572628871696993 -0.03226536588219405 -0.9259298675307251 0.0
C C 0.17913850466043346 0.09589987283646981 -0.9205061500874948 0.0
C C 0.16924393884950636 -0.0686815285151007 -0.7636960724725654 0.0
C C 0.22077787377131672 -0.3591159128949492 -0.8743317054969387 0.0
C C 0.389335335286991 -0.06441406245424666 -0.7485769200517958 0.0
H H 0.364886435286991 -0.0013840624542466333 -0.7727951200517957 0.0
C C 0.4340066093684271 -0.008896104481893022 -0.6913719790022512 0.0
H H 0.43591780936842717 0.08993389551810695 -0.6820300790022513 0.0
C C 0.4707480793606133 -0.08327927673938935 -0.6700417246477124 0.0
C C 0.46365973334245797 -0.23745205228137178 -0.6765595456156575 0.0
H H 0.48689093334245803 -0.30362205228137173 -0.6519395456156574 0.0
C C 0.42394477749638315 -0.294999053663722 -0.7207821082164209 0.0
H H 0.4212359774963832 -0.392969053663722 -0.7323621082164208 0.0
C C 0.568513544472739 0.14528883369274884 -0.5523012035824891 0.0
H H 0.5789024444727392 0.24051883369274887 -0.5550793035824891 0.0
C C 0.5322288816102894 0.10463474218111128 -0.6005555101007177 0.0
H H 0.5148576816102896 0.16926474218111126 -0.6367355101007177 0.0
C C 0.5161055301580891 -0.030898145870168165 -0.5972556171386313 0.0
C C 0.5416570381519888 -0.1325211355196042 -0.5592627864331227 0.0
H H 0.5316159381519888 -0.22749113551960418 -0.5543309864331228 0.0
C C 0.5853319080444969 -0.08301642741062563 -0.48951269869067604 0.0
H H 0.6031908080444969 -0.1451864274106256 -0.45252089869067613 0.0
