_cell_length_a 27.1013
_cell_length_b 9.27321
_cell_length_c 16.979215
_cell_angle_alpha 90.0
_cell_angle_beta 99.1565
_cell_angle_gamma 90.0
_symmetry_space_group_name_H-M         'P 1'
_symmetry_Int_Tables_number            1
loop_
_symmetry_equiv_pos_as_xyz
   'x, y, z'
                         
loop_
_atom_site_label
_atom_site_type_symbol
_atom_site_fract_x 
_atom_site_fract_y
_atom_site_fract_z
_atom_site_charge
Zn Zn -0.16710142272395745 0.7936170180589586 -0.3390324499150364 0.0
Zn Zn -0.17080960143001497 0.3926471271544473 -0.5550643668541437 0.0
O O -0.23137708143280664 0.6642716936921377 -0.30680584171983605 0.0
O O -0.17986277292016967 0.6358978958339313 -0.4258488308381698 0.0
O O -0.20669256403335115 0.42344581927009367 -0.4502490238695089 0.0
O O -0.3001933307007074 0.2904548305214726 -0.406235619117443 0.0
O O -0.3701055872584212 0.4200951771338474 -0.46959998788315893 0.0
O O -0.3143880588600889 0.4351306850449689 -0.2529279450904874 0.0
O O -0.3620528468792377 0.6306943013460533 -0.22311953293373119 0.0
O O -0.31274789152947624 0.948024015724714 -0.3713792499790998 0.0
O O -0.24121737586331557 0.8920090117608988 -0.40005738015610576 0.0
N N -0.11275307223012279 0.6894101919716649 -0.26882346023610826 0.0
N N 0.09390873179484158 0.4409571201018626 -0.0069455981044288006 0.0
C C -0.24465398530022464 0.5344484845856023 -0.35963785282223704 0.0
H H -0.24011498530022465 0.44692848458560236 -0.32693645282223704 0.0
C C -0.29965318275676633 0.5357817052262996 -0.40174312815182744 0.0
H H -0.2999941827567663 0.5928517052262997 -0.4504417281518274 0.0
C C -0.3203618858506532 0.636805135522125 -0.34630657374438706 0.0
H H -0.34903288585065323 0.689575135522125 -0.374865173744387 0.0
C C -0.2739614836658942 0.741378302047488 -0.3074177342769838 0.0
H H -0.27705248366589413 0.7749583020474881 -0.2536663342769838 0.0
C C -0.20316588922922213 0.5206652051559322 -0.41583838854916294 0.0
C C -0.32535635592225814 0.3992722818985397 -0.42760848682268904 0.0
C C -0.33156591053581763 0.5616418077432632 -0.2650238384639223 0.0
C C -0.2766450515192586 0.8821376339549196 -0.3644746437131332 0.0
C C -0.10533827715855676 0.5596561762360629 -0.25050001018337614 0.0
H H -0.12978717715855675 0.4966261762360629 -0.2747182101833761 0.0
C C -0.06594883755621657 0.49599513169616344 -0.1949422252715911 0.0
H H -0.06403763755621657 0.39716513169616335 -0.18560032527159115 0.0
C C -0.024278044757248884 0.5890897607000113 -0.16034055033266517 0.0
C C -0.0321580478333698 0.7431231452732806 -0.1745314181850091 0.0
H H -0.008926847833369809 0.8092931452732806 -0.1499114181850091 0.0
C C -0.07521943514716849 0.7755574190170804 -0.22427570204631422 0.0
H H -0.0779282351471685 0.8735274190170805 -0.2358557020463142 0.0
C C 0.07610802713950965 0.35433166150894513 -0.05784152420487305 0.0
H H 0.08649692713950964 0.25910166150894504 -0.06061962420487303 0.0
C C 0.028743507084933295 0.39393253389906735 -0.11085259499183057 0.0
H H 0.011372307084933295 0.3293025338990674 -0.14703259499183058 0.0
C C 0.01780825409764421 0.5296173519142876 -0.1003930406948944 0.0
C C 0.03806142014849265 0.6259478928141357 -0.04480849329026499 0.0
H H 0.028020320148492647 0.7209178928141357 -0.039876693290265 0.0
C C 0.08369006854430543 0.5814902377808718 -0.0036043113399366715 0.0
H H 0.10154896854430544 0.6436602377808718 0.03338748866006333 0.0
Zn Zn 0.17820487687987804 0.7978467104143852 0.8395242621129212 0.0
Zn Zn 0.17410151276304642 0.3850282511628573 1.0465842743582747 0.0
O O 0.23568513430218715 0.6477115142567976 0.8104748296802535 0.0
O O 0.1821252551112612 0.6367701612326893 0.9227099779461494 0.0
O O 0.20850511611606204 0.4170154004219034 0.9603759066293762 0.0
O O 0.3042237449724533 0.2950504421515273 0.9031959464560424 0.0
O O 0.36212798993106576 0.408183312979001 0.9709799085943791 0.0
O O 0.3216607797214661 0.43346765976887025 0.7517520179035975 0.0
O O 0.3676472750300728 0.6173696422171541 0.7341478868097238 0.0
O O 0.31875876757025223 0.9465022999013599 0.8713443669148091 0.0
O O 0.24417381321941806 0.903534273083455 0.9006959058864074 0.0
N N 0.11498655058324064 0.6992919508533244 0.7717972031697441 0.0
N N -0.09765699384713092 0.4284622740676059 0.507151430293743 0.0
C C 0.24805464525095913 0.5323329854627514 0.861851837179218 0.0
H H 0.24351564525095915 0.4448129854627514 0.829150437179218 0.0
C C 0.2913424207110774 0.536832357567151 0.8986777364189025 0.0
H H 0.2916834207110774 0.5939023575671509 0.9473763364189024 0.0
C C 0.3235724131601963 0.635404822621419 0.8355008981072786 0.0
H H 0.3522434131601963 0.6881748226214189 0.8640594981072786 0.0
C C 0.27563263878060246 0.7397811431035797 0.8016339137340496 0.0
H H 0.2787236387806024 0.7733611431035797 0.7478825137340495 0.0
C C 0.2089634467435116 0.5405870349486565 0.920211196240059 0.0
C C 0.32355451273035835 0.395176765622054 0.9255322288817551 0.0
C C 0.3397462709002063 0.5567113309758216 0.7681425562125268 0.0
C C 0.28222465380466794 0.8736947160048848 0.8671806416450177 0.0
C C 0.10774165088144229 0.5643433959935314 0.7451726226983605 0.0
H H 0.13219055088144227 0.5013133959935314 0.7693908226983605 0.0
C C 0.06547544820374786 0.5056604820140487 0.7013654256050071 0.0
H H 0.06356424820374786 0.4068304820140487 0.6920235256050071 0.0
C C 0.025643881676541684 0.5967142321995628 0.6590038451002156 0.0
C C 0.032366014805779976 0.7477856854834584 0.6778244251233383 0.0
H H 0.009134814805779976 0.8139556854834583 0.6532044251233382 0.0
C C 0.08047012318237205 0.7927148444446515 0.7319137545828884 0.0
H H 0.08317892318237204 0.8906848444446517 0.7434937545828884 0.0
C C -0.07157908484084884 0.3444014579665806 0.5630069980295357 0.0
H H -0.08196798484084887 0.24917145796658052 0.5657850980295357 0.0
C C -0.029774541133524027 0.3833321257421251 0.6132300112236044 0.0
H H -0.012403341133524027 0.3187021257421251 0.6494100112236045 0.0
C C -0.018431849412877763 0.5423484953129815 0.6041417443122988 0.0
C C -0.038264222860399696 0.6395359280340475 0.5486682238574563 0.0
H H -0.028223122860399703 0.7345059280340475 0.5437364238574564 0.0
C C -0.08566543952455465 0.5783610851696138 0.4956939402744351 0.0
H H -0.10352433952455464 0.6405310851696139 0.45870214027443523 0.0
Zn Zn 0.3258306049638288 1.3090142684134045 -0.3378617043807758 0.0
Zn Zn 0.32831961320278336 0.9042204813866935 -0.5525136696531527 0.0
O O 0.2638215865200121 1.1632099245950984 -0.3020973477796936 0.0
O O 0.31784134473928416 1.1353276298962667 -0.4258460555746649 0.0
O O 0.29770637067993033 0.9141694349198667 -0.45974900094069593 0.0
O O 0.19632743616826082 0.7819097212596579 -0.3945179383671312 0.0
O O 0.1350166934648555 0.9062300584545666 -0.46634234778745737 0.0
O O 0.18170727396190003 0.9258543718032276 -0.24716517782077974 0.0
O O 0.13136030637949145 1.1248710853560224 -0.23668021988208562 0.0
O O 0.18690828188469882 1.448205240926413 -0.37516191564842694 0.0
O O 0.2609405418510316 1.3973556882139255 -0.40400824906044525 0.0
N N 0.3893365245768074 1.1854154168001059 -0.26492287936849607 0.0
N N 0.5975531869310149 0.9241525850660236 -0.009768036840598914 0.0
C C 0.2638010574737429 1.0311723586730814 -0.35048194748363265 0.0
H H 0.2683400574737429 0.9436523586730813 -0.31778054748363266 0.0
C C 0.20905141299057992 1.0416036856122148 -0.3900569092895004 0.0
H H 0.20871041299057996 1.0986736856122148 -0.43875550928950036 0.0
C C 0.1814579438152364 1.1320769157920758 -0.33363341356379594 0.0
H H 0.15278694381523641 1.1848469157920762 -0.36219201356379593 0.0
C C 0.22424460377683986 1.2486905825505215 -0.30549776983729415 0.0
H H 0.22115360377683982 1.2822705825505214 -0.2517463698372942 0.0
C C 0.2934372439074461 1.0361520357995269 -0.41111611033590684 0.0
C C 0.17812341576613303 0.8864464973460394 -0.4227749685453337 0.0
C C 0.16336828407748785 1.046630264090313 -0.2724593334972077 0.0
C C 0.22636322147580948 1.359051077062336 -0.36451156322885686 0.0
C C 0.3952419228028743 1.0659449097125115 -0.24614952911750845 0.0
H H 0.37079302280287435 1.0029149097125116 -0.27036772911750845 0.0
C C 0.43279234664286664 0.996364077157063 -0.19897461466112837 0.0
H H 0.43470354664286665 0.897534077157063 -0.1896327146611284 0.0
C C 0.46889945586453313 1.0962095771685723 -0.16007244171248858 0.0
C C 0.467268821413017 1.230473797458628 -0.17059570140540192 0.0
H H 0.4905000214130169 1.296643797458628 -0.1459757014054019 0.0
C C 0.4277256726994534 1.2830890695703283 -0.22690490932261428 0.0
H H 0.4250168726994534 1.3810590695703284 -0.23848490932261426 0.0
C C 0.5775871530513185 0.8602375226585496 -0.0559735170295429 0.0
H H 0.5879760530513186 0.7650075226585497 -0.058751617029542895 0.0
C C 0.5267096173365742 0.8892217866421047 -0.10494809864253321 0.0
H H 0.5093384173365743 0.8245917866421046 -0.14112809864253323 0.0
C C 0.5118366870741256 1.0339111194683097 -0.10904964749060886 0.0
C C 0.547491733114271 1.1236509408989286 -0.04476642298628863 0.0
H H 0.537450633114271 1.2186209408989286 -0.03983462298628863 0.0
C C 0.5826945988748177 1.0782234214242505 -0.007916787969677774 0.0
H H 0.6005534988748177 1.1403934214242502 0.029075012030322228 0.0
Zn Zn 0.6741670690997538 1.3000675364167888 0.8356562113727407 0.0
Zn Zn 0.6728178993419163 0.9032672905111996 1.0492864807412803 0.0
O O 0.7360041426850245 1.1727750039670803 0.8103970258540025 0.0
O O 0.678399521566091 1.1372203149620261 0.9173512892163858 0.0
O O 0.7095208965600457 0.9242464998039944 0.9636532665329465 0.0
O O 0.7990293222910151 0.7801045847210097 0.8958815646438882 0.0
O O 0.8683239066156593 0.9103137637357039 0.9649290235753818 0.0
O O 0.8180021691041504 0.9329683389478604 0.7520301661876125 0.0
O O 0.8655736086029076 1.113869267909873 0.7300280305429792 0.0
O O 0.8176319177259229 1.4439250487128992 0.8794105998285758 0.0
O O 0.7374144836230666 1.4011610521773592 0.9015618852580505 0.0
N N 0.6146938495288196 1.2103063367588978 0.7711775740116488 0.0
N N 0.3943714337191401 0.9385917557228619 0.5023070348310527 0.0
C C 0.7399912451544713 1.0275184238977093 0.849285439805509 0.0
H H 0.7354522451544714 0.9399984238977089 0.816584039805509 0.0
C C 0.7938726588749424 1.046888705988095 0.8960404473455422 0.0
H H 0.7942136588749421 1.1039587059880949 0.9447390473455423 0.0
C C 0.8223798837801757 1.1258910823124546 0.8399789991194564 0.0
H H 0.8510508837801758 1.1786610823124548 0.8685375991194564 0.0
C C 0.7785245099946396 1.2320658614469846 0.8076401513765393 0.0
H H 0.7816155099946396 1.2656458614469845 0.7538887513765391 0.0
C C 0.7110761756841888 1.0250194111117932 0.9188140422953271 0.0
C C 0.8231132009593537 0.8862906631879713 0.9206852451664497 0.0
C C 0.839843206035335 1.061268435378933 0.7699637556414882 0.0
C C 0.775322129779899 1.3707317974651911 0.8720521444933597 0.0
C C 0.6043262635082308 1.0634435075808315 0.7538133449189953 0.0
H H 0.6287751635082308 1.0004135075808314 0.7780315449189953 0.0
C C 0.5732503635382268 1.005015009482987 0.7045661700849243 0.0
H H 0.5713391635382267 0.906185009482987 0.6952242700849243 0.0
C C 0.5310117518989994 1.0877109771368445 0.6671630445983354 0.0
C C 0.5361258204188234 1.2425217377444735 0.6776492962630205 0.0
H H 0.5128946204188234 1.3086917377444736 0.6530292962630204 0.0
C C 0.5798827081124561 1.2925417938911032 0.7351123799380996 0.0
H H 0.5825915081124562 1.3905117938911036 0.7466923799380997 0.0
C C 0.42792339719655836 0.8402624862431689 0.5542314770571377 0.0
H H 0.41753449719655833 0.745032486243169 0.5570095770571377 0.0
C C 0.46678947899581247 0.8879745802691422 0.6121672831043385 0.0
H H 0.4841606789958124 0.8233445802691423 0.6483472831043386 0.0
C C 0.48109608294432105 1.045505695398243 0.6059880266008365 0.0
C C 0.4619419724272689 1.136246367550048 0.5517877464252938 0.0
H H 0.4719830724272689 1.231216367550048 0.5468559464252939 0.0
C C 0.4187179542957796 1.0899035945477982 0.5026033719157249 0.0
H H 0.40085905429577967 1.152073594547798 0.46561157191572494 0.0
Zn Zn 0.17389093607927616 -0.8078233531146438 0.3389830224940585 0.0
Zn Zn 0.1717306684289735 -0.3806180599044431 0.5496742319809192 0.0
O O 0.2374161275283016 -0.658012166544948 0.3120942410711994 0.0
O O 0.17720779382326018 -0.6201928337828897 0.4233564515738325 0.0
O O 0.20636011883835725 -0.41880223716087533 0.46218028370500625 0.0
O O 0.30495454706761776 -0.2946918221936341 0.39918352867603624 0.0
O O 0.36957795205915855 -0.4102461465909997 0.47404210295708893 0.0
O O 0.3171752729165356 -0.4347229358782246 0.2541396307212463 0.0
O O 0.36946736934972824 -0.6244230251043361 0.23376485136199465 0.0
O O 0.3134628336195344 -0.9480412295834422 0.3681373985678988 0.0
O O 0.23464730122039143 -0.8956979524139023 0.399367016349363 0.0
N N 0.1109931548997807 -0.7019323857440138 0.25964167451971204 0.0
N N -0.10331125864597063 -0.4350285916766715 -0.0006831326501565796 0.0
C C 0.23936707060166412 -0.5407405577681234 0.35733600746918665 0.0
H H 0.23482807060166414 -0.45322055776812326 0.3246346074691867 0.0
C C 0.29675490182196307 -0.5385236802370883 0.3960011009564369 0.0
H H 0.2970959018219631 -0.5955936802370884 0.4446997009564369 0.0
C C 0.3254118252138798 -0.6310160575763475 0.341196403599702 0.0
H H 0.3540828252138798 -0.6837860575763475 0.369755003599702 0.0
C C 0.27614161649014424 -0.7367225991007825 0.30471242557463635 0.0
H H 0.27923261649014425 -0.7703025991007826 0.25096102557463634 0.0
C C 0.20079784938567674 -0.5213663483297838 0.4192390406686808 0.0
C C 0.3276651018791294 -0.40650493348319505 0.42047632139143143 0.0
C C 0.3370487065412314 -0.5531067282674383 0.2714716372357852 0.0
C C 0.277815430802697 -0.8785854113848695 0.36483630021672103 0.0
C C 0.10652834858492866 -0.5558838702487886 0.2408314081088845 0.0
H H 0.13097724858492865 -0.49285387024878863 0.2650496081088845 0.0
C C 0.07254109423427631 -0.4935145241642887 0.20371037357281802 0.0
H H 0.0706298942342763 -0.3946845241642887 0.19436847357281803 0.0
C C 0.03332057938377953 -0.5979188039304706 0.16206054404468753 0.0
C C 0.031718316517039706 -0.734704871410503 0.17188575769955278 0.0
H H 0.008487116517039713 -0.800874871410503 0.14726575769955277 0.0
C C 0.07728711967807222 -0.7897568592481683 0.2276303864698534 0.0
H H 0.07999591967807222 -0.8877268592481684 0.23921038646985338 0.0
C C -0.07487866528909323 -0.3620222485374595 0.05518679248628709 0.0
H H -0.08526756528909323 -0.2667922485374595 0.057964892486287084 0.0
C C -0.03163968598730323 -0.38446966923273856 0.1118036730847926 0.0
H H -0.014268485987303238 -0.3198396692327386 0.14798367308479257 0.0
C C -0.018791546539808305 -0.5411425616027545 0.10077609454037574 0.0
C C -0.043487888086076586 -0.6323979944598157 0.052910999665181147 0.0
H H -0.03344678808607659 -0.7273679944598158 0.047979199665181146 0.0
C C -0.08538196291609976 -0.5796467701421847 -0.002048389452568464 0.0
H H -0.10324086291609977 -0.6418167701421846 -0.039040189452568465 0.0
Zn Zn -0.17649029181501336 -0.8039407953188219 -0.8492743546915569 0.0
Zn Zn -0.17321570867681738 -0.4015837190888852 -1.0522193682277219 0.0
O O -0.23171867248687664 -0.6492786560840489 -0.8035164476498605 0.0
O O -0.17167492617965507 -0.6333396185048609 -0.916913051690229 0.0
O O -0.21112853033013393 -0.4011860093861881 -0.9592927250916303 0.0
O O -0.3010492359269632 -0.28266354630103013 -0.8962494242560861 0.0
O O -0.36773136577874677 -0.4100194008418045 -0.974287178484975 0.0
O O -0.3167170543002947 -0.43151570110185883 -0.7595313508371876 0.0
O O -0.3612495045551492 -0.6269936852999953 -0.7262504112133698 0.0
O O -0.3203302532697955 -0.9325409959435861 -0.8733604811378819 0.0
O O -0.24230971749354946 -0.8862528452651325 -0.9012361576203545 0.0
N N -0.1158775695129858 -0.6975633478194289 -0.7742716794769039 0.0
N N 0.10064848119241197 -0.4488230886931472 -0.5093548196711011 0.0
C C -0.23931378941234777 -0.531672688914505 -0.8516810190523625 0.0
H H -0.23477478941234775 -0.44415268891450504 -0.8189796190523625 0.0
C C -0.2923446056239475 -0.5455821048504927 -0.9023541307770535 0.0
H H -0.29268560562394746 -0.6026521048504927 -0.9510527307770535 0.0
C C -0.3204741271154383 -0.6275165069758277 -0.8400967675631098 0.0
H H -0.3491451271154383 -0.6802865069758277 -0.8686553675631098 0.0
C C -0.28281533419045435 -0.7432510828991922 -0.8133185184289587 0.0
H H -0.28590633419045436 -0.7768310828991922 -0.7595671184289586 0.0
C C -0.21130941879241624 -0.5249053566313466 -0.9246340163381035 0.0
C C -0.3237886537962279 -0.39628291477049754 -0.9161824050060119 0.0
C C -0.3351421596700166 -0.5501571984966924 -0.7651450607061155 0.0
C C -0.27564863735407175 -0.8809332475353099 -0.8671460852457173 0.0
C C -0.10927815601527252 -0.5466124902949172 -0.7516382064394814 0.0
H H -0.13372705601527252 -0.4835824902949172 -0.7758564064394815 0.0
C C -0.06604457928634663 -0.502163398530804 -0.7026788491916759 0.0
H H -0.06413337928634663 -0.403333398530804 -0.6933369491916759 0.0
C C -0.028220161215721663 -0.5962404549593603 -0.6594844954322361 0.0
C C -0.03756396658390319 -0.7463037029554449 -0.6827959131051227 0.0
H H -0.0143327665839032 -0.8124737029554449 -0.6581759131051226 0.0
C C -0.07483321219615628 -0.7720655803954526 -0.7318955584870005 0.0
H H -0.07754201219615628 -0.8700355803954528 -0.7434755584870005 0.0
C C 0.07804247804350779 -0.3436500430215255 -0.5530301927083406 0.0
H H 0.0884313780435078 -0.24842004302152546 -0.5558082927083406 0.0
C C 0.03249864471166543 -0.3999287369155639 -0.6012556836036526 0.0
H H 0.015127444711665428 -0.33529873691556394 -0.6374356836036525 0.0
C C 0.016779819728827815 -0.533480673587891 -0.6069005712765645 0.0
C C 0.043622228707041 -0.6281050005891952 -0.5542435042126432 0.0
H H 0.033581128707041004 -0.7230750005891952 -0.5493117042126433 0.0
C C 0.08339432455917499 -0.5753672883397144 -0.5080758781856531 0.0
H H 0.10125322455917496 -0.6375372883397143 -0.47108407818565323 0.0
Zn Zn 0.6710445512217021 -0.29858478809495415 0.34456854909250284 0.0
Zn Zn 0.6669089726278451 0.11190490550448202 0.5470488000428927 0.0
O O 0.7337889999051879 -0.15637868167648336 0.30436479345684164 0.0
O O 0.675314981377195 -0.12680608236909954 0.4257191610303674 0.0
O O 0.7084554651353533 0.08620774423670341 0.4531640536193516 0.0
O O 0.797983520155294 0.22383411371956635 0.39602428183912336 0.0
O O 0.8649335953766082 0.0929785001984017 0.47174176253659783 0.0
O O 0.8183632868018675 0.07714846590275204 0.25777086022788714 0.0
O O 0.8660110805209893 -0.1185440760917782 0.23663194120525513 0.0
O O 0.8169540362645975 -0.44418356612582816 0.37977534398911095 0.0
O O 0.7439128106087289 -0.39033371638125736 0.4053802282476113 0.0
N N 0.6195486220621603 -0.19602120508019885 0.27059622220296525 0.0
N N 0.3955741790704818 0.06922990429595331 0.007518499546987542 0.0
C C 0.7450463272754684 -0.0320033128629272 0.3590012499449374 0.0
H H 0.7405073272754683 0.055516687137072834 0.3262998499449374 0.0
C C 0.7949861565665557 -0.04168903597325499 0.3969918390390358 0.0
H H 0.7953271565665556 -0.09875903597325496 0.44569043903903577 0.0
C C 0.8173888945782779 -0.14197025708995245 0.338055274032008 0.0
H H 0.8460598945782779 -0.19474025708995243 0.366613874032008 0.0
C C 0.775772893208214 -0.2325063141667776 0.30385938121626827 0.0
H H 0.7788638932082139 -0.2660863141667777 0.25010798121626826 0.0
C C 0.7074315360273077 -0.03212167361664116 0.42037936404882537 0.0
C C 0.8227942901059867 0.08993275478083916 0.42438164768419123 0.0
C C 0.8343271995344625 -0.04718926754654125 0.2662040359720024 0.0
C C 0.7811142913953887 -0.3838052776275538 0.3686551483506186 0.0
C C 0.6068071086956932 -0.05802720456123433 0.25611409365823345 0.0
H H 0.6312560086956932 0.005002795438765686 0.2803322936582335 0.0
C C 0.5622401504796057 -0.0033806647238377153 0.1922001810567811 0.0
H H 0.5603289504796056 0.09544933527616224 0.18285828105678112 0.0
C C 0.5275640305290421 -0.09308701901110601 0.1536229856035212 0.0
C C 0.5345568523424278 -0.24163497337757786 0.1710667720965912 0.0
H H 0.5113256523424279 -0.3078049733775778 0.1464467720965912 0.0
C C 0.5799886199767509 -0.2828018289265867 0.2291194021899627 0.0
H H 0.582697419976751 -0.3807718289265867 0.2406994021899627 0.0
C C 0.4261872603270889 0.13937738336034594 0.05209268786435005 0.0
H H 0.4157983603270889 0.234607383360346 0.05487078786435005 0.0
C C 0.471292962188985 0.09577194066901104 0.11427051954375836 0.0
H H 0.48866416218898495 0.160401940669011 0.15045051954375835 0.0
C C 0.4846644860839626 -0.037492068015439826 0.10948741518264216 0.0
C C 0.46194874720786366 -0.11692599139302358 0.05470445113419174 0.0
H H 0.47198984720786363 -0.21189599139302356 0.04977265113419174 0.0
C C 0.4126163758167239 -0.07869597069121707 -0.0019850689261012655 0.0
H H 0.3947574758167239 -0.140865970691217 -0.03897686892610127 0.0
Zn Zn 0.33074274219177086 -0.3045754954023211 -0.835562137193295 0.0
Zn Zn 0.3325558221013728 0.10125088169820934 -1.043824539583871 0.0
O O 0.27090654017727345 -0.16411518490656843 -0.8050588028958162 0.0
O O 0.3187955964297552 -0.12763721560566124 -0.9206017001899593 0.0
O O 0.2928235905664277 0.07201821717709571 -0.9546343441960207 0.0
O O 0.19808119924903503 0.2269539814043807 -0.8988732259915014 0.0
O O 0.1355845754606326 0.0997788347686884 -0.9687568097334841 0.0
O O 0.18248628045698284 0.059719286503208215 -0.7540473764622568 0.0
O O 0.1356597586316731 -0.1258967359140997 -0.7271551626955901 0.0
O O 0.18366100222244303 -0.43273932073619314 -0.8749649933516389 0.0
O O 0.2544782864589842 -0.4039611909828934 -0.8988414335392492 0.0
N N 0.3851067246864638 -0.19953775836455814 -0.7596363913803746 0.0
N N 0.5986028699610831 0.05805826015979086 -0.5061941112650722 0.0
C C 0.2559414531208074 -0.032107486330169376 -0.8667679465636743 0.0
H H 0.26048045312080736 0.05541251366983067 -0.8340665465636743 0.0
C C 0.19884616611415032 -0.04781095013315121 -0.905896343300165 0.0
H H 0.1985051661141503 -0.10488095013315114 -0.9545949433001649 0.0
C C 0.1811737441274829 -0.12592987461307728 -0.8401053661569329 0.0
H H 0.1525027441274829 -0.17869987461307726 -0.8686639661569329 0.0
C C 0.22298757695455748 -0.24777123000700152 -0.8076190532310215 0.0
H H 0.21989657695455753 -0.2813512300070016 -0.7538676532310212 0.0
C C 0.29379987826953957 -0.04171163679552096 -0.9238865322348222 0.0
C C 0.17094464011147487 0.09823734225275775 -0.9240593408971322 0.0
C C 0.16143133219618 -0.05799976515380478 -0.7756910216149893 0.0
C C 0.22223962371626665 -0.37328456643457075 -0.8707008627334906 0.0
C C 0.39656972646557154 -0.05443078507123748 -0.7460564316419401 0.0
H H 0.37212082646557154 0.008599214928762549 -0.7702746316419402 0.0
C C 0.4318649662202719 -0.00010496638875983919 -0.6937939709879617 0.0
H H 0.43377616622027193 0.09872503361124013 -0.6844520709879618 0.0
C C 0.468381559305085 -0.1019781421432063 -0.6559846258689108 0.0
C C 0.46276117062204586 -0.24521105157619866 -0.6789538295403501 0.0
H H 0.48599237062204587 -0.3113810515761986 -0.65433382954035 0.0
C C 0.41985233650041043 -0.2849598647875474 -0.7362358905781351 0.0
H H 0.4171435365004105 -0.3829298647875474 -0.747815890578135 0.0
C C 0.5712195958676088 0.14111061019928195 -0.5561770902828898 0.0
H H 0.5816084958676089 0.23634061019928196 -0.5589551902828898 0.0
C C 0.5334153949224402 0.11515396770472076 -0.6089411953650407 0.0
H H 0.5160441949224402 0.17978396770472077 -0.6451211953650406 0.0
C C 0.5152709652400854 -0.029983954881448126 -0.60775504095787 0.0
C C 0.5441776544446117 -0.12419975105035563 -0.5482497185091406 0.0
H H 0.5341365544446117 -0.21916975105035558 -0.5433179185091408 0.0
C C 0.5822707435550603 -0.06804941646547027 -0.5041078410379999 0.0
H H 0.6001296435550602 -0.13021941646547025 -0.467116041038 0.0
