_cell_length_a 27.1013
_cell_length_b 9.27321
_cell_length_c 16.979215
_cell_angle_alpha 90.0
_cell_angle_beta 99.1565
_cell_angle_gamma 90.0
_symmetry_space_group_name_H-M         'P 1'
_symmetry_Int_Tables_number            1
loop_
_symmetry_equiv_pos_as_xyz
   'x, y, z'
                         
loop_
_atom_site_label
_atom_site_type_symbol
_atom_site_fract_x 
_atom_site_fract_y
_atom_site_fract_z
_atom_site_charge
Zn Zn -0.17932596305636192 0.7824076162258196 -0.3455225423815261 0.0
Zn Zn -0.17603666997063686 0.38117686150168273 -0.5475881931584115 0.0
O O -0.23457833810313736 0.6688141677446583 -0.3151928259957647 0.0
O O -0.17760179680757804 0.6347841954783556 -0.41774163515388 0.0
O O -0.20785957534909208 0.40304058577150337 -0.4650210201550216 0.0
O O -0.29985862600100693 0.28274353414552944 -0.39759170746884354 0.0
O O -0.36407779293194303 0.40135127618016236 -0.45751502877863315 0.0
O O -0.3227030249714806 0.4315335954497387 -0.26186379647687125 0.0
O O -0.3665672957033729 0.6230185480111885 -0.22628573584593248 0.0
O O -0.314734311556988 0.9426956917060474 -0.36369466825710123 0.0
O O -0.23794354384918626 0.8868154371956828 -0.39009437948590286 0.0
N N -0.10760174577866546 0.6998824445917443 -0.2574291787814818 0.0
N N 0.10662538306345477 0.44633062500286036 -0.00018209252300082913 0.0
C C -0.24830040235758893 0.5341412061099345 -0.36601840503995725 0.0
H H -0.24376140235758895 0.44662120610993455 -0.3333170050399573 0.0
C C -0.29685280220666826 0.5347120139322689 -0.40724859351202786 0.0
H H -0.2971938022066683 0.5917820139322689 -0.45594719351202784 0.0
C C -0.31737312691226605 0.6361599334120528 -0.3308789864318165 0.0
H H -0.34604412691226605 0.6889299334120527 -0.35943758643181645 0.0
C C -0.2788903094882367 0.7536405725182745 -0.30702520103426856 0.0
H H -0.28198130948823663 0.7872205725182746 -0.25327380103426855 0.0
C C -0.20418619413257605 0.5211105870387155 -0.4192599877141167 0.0
C C -0.31995070420826544 0.387378703767765 -0.4205412108099568 0.0
C C -0.32829476510186967 0.5623158113843699 -0.26447834223537553 0.0
C C -0.2729870924259241 0.8625675828769453 -0.3606023037247316 0.0
C C -0.10418275707978021 0.5695442567857644 -0.24921747206546768 0.0
H H -0.12863165707978022 0.5065142567857643 -0.2734356720654677 0.0
C C -0.06966351228148072 0.48946482080935594 -0.19608127490554603 0.0
H H -0.06775231228148071 0.3906348208093559 -0.18673937490554607 0.0
C C -0.029041161597464542 0.6005706448015801 -0.15307935631608147 0.0
C C -0.03390224479379565 0.7364790029683104 -0.18351764888623437 0.0
H H -0.010671044793795659 0.8026490029683103 -0.15889764888623437 0.0
C C -0.07976173025703279 0.7731620171139422 -0.2354379288739796 0.0
H H -0.0824705302570328 0.8711320171139424 -0.24701792887397958 0.0
C C 0.06704801811369775 0.3504040182975784 -0.06808791719641023 0.0
H H 0.07743691811369774 0.25517401829757835 -0.07086601719641022 0.0
C C 0.030814168451063 0.39209026802441577 -0.10250328186945032 0.0
H H 0.013442968451062996 0.3274602680244158 -0.1386832818694503 0.0
C C 0.022081515598136738 0.5390118011037971 -0.0989989112010672 0.0
C C 0.044008849615936804 0.6245669963356738 -0.039571908738502935 0.0
H H 0.03396774961593681 0.7195369963356738 -0.03464010873850294 0.0
C C 0.08410195014385324 0.5851814723725494 -9.422178150422912e-05 0.0
H H 0.10196085014385324 0.6473514723725493 0.03689757821849578 0.0
Zn Zn 0.17748284744946288 0.8153129153413861 0.8468709054923081 0.0
Zn Zn 0.1739126666844891 0.38663530703169163 1.0444003823549628 0.0
O O 0.235623576589191 0.6764023934747723 0.809763802042828 0.0
O O 0.17702312565055933 0.6249984935173158 0.9294343620948791 0.0
O O 0.2075718507404133 0.41094511649685705 0.9601234972965192 0.0
O O 0.30806130382925223 0.27958611679095396 0.9054946515993337 0.0
O O 0.3592768000000652 0.3991644862146799 0.9574996433243839 0.0
O O 0.31592382386823475 0.4366603713150373 0.7580217955412774 0.0
O O 0.3661115068829665 0.6430248293018889 0.7288560381280369 0.0
O O 0.31848135545519646 0.9463645647138341 0.8791711779006739 0.0
O O 0.23703206459054507 0.8852544670242866 0.9010906976409138 0.0
N N 0.10583662179591809 0.6966708066104536 0.7555730808649106 0.0
N N -0.10447671748715233 0.4398669901024222 0.5073874725781602 0.0
C C 0.23503042466431368 0.53669916288621 0.8508589474672175 0.0
H H 0.23049142466431366 0.44917916288620996 0.8181575474672175 0.0
C C 0.2907399252759094 0.5497128141003212 0.8914228978139087 0.0
H H 0.29108092527590945 0.6067828141003213 0.9401214978139087 0.0
C C 0.31502830163973006 0.63420699634631 0.8318163797355034 0.0
H H 0.34369930163973006 0.6869769963463099 0.8603749797355034 0.0
C C 0.27386928416786205 0.7308401687176102 0.8131822885110174 0.0
H H 0.27696028416786206 0.7644201687176103 0.7594308885110171 0.0
C C 0.2134106367366716 0.5365516242466369 0.9270726683737935 0.0
C C 0.323268726495968 0.40813476652317593 0.9265529769272572 0.0
C C 0.3288866727459021 0.562489503691193 0.7602273351594202 0.0
C C 0.2723904585178457 0.8563313109872517 0.8587181026643299 0.0
C C 0.10463330646734506 0.5722655365978974 0.747416336239826 0.0
H H 0.12908220646734506 0.5092355365978973 0.771634536239826 0.0
C C 0.06720197645132302 0.4919065396753672 0.6989860324706011 0.0
H H 0.06529077645132302 0.39307653967536726 0.6896441324706011 0.0
C C 0.028499432293972032 0.6016321638245378 0.6524107416712067 0.0
C C 0.037006942023467555 0.7335187209606175 0.6768722532380096 0.0
H H 0.013775742023467562 0.7996887209606175 0.6522522532380095 0.0
C C 0.0696212377589684 0.77386860161652 0.7190297416838 0.0
H H 0.07233003775896839 0.8718386016165204 0.7306097416837999 0.0
C C -0.07703024239548346 0.3556288297114194 0.5616940227665904 0.0
H H -0.0874191423954835 0.2603988297114193 0.5644721227665904 0.0
C C -0.03638762421284282 0.39899695860141704 0.5995297127348193 0.0
H H -0.01901642421284282 0.3343669586014171 0.6357097127348192 0.0
C C -0.00867524105712395 0.5396869690943003 0.6086300224537062 0.0
C C -0.04767752614959751 0.6155215231601243 0.5463995385211491 0.0
H H -0.037636426149597516 0.7104915231601245 0.5414677385211493 0.0
C C -0.08256086225336066 0.5607810643361486 0.4995537383596597 0.0
H H -0.10041976225336066 0.6229510643361486 0.4625619383596598 0.0
Zn Zn 0.32885157756319666 1.2911635723701171 -0.34592995252853903 0.0
Zn Zn 0.3295404340917153 0.8975737198810878 -0.5491490984292225 0.0
O O 0.26148331773404826 1.1534109966267365 -0.3171688275864034 0.0
O O 0.32052831920013347 1.1206595944328162 -0.42892036435784453 0.0
O O 0.29392541661767635 0.9299029549577549 -0.45737263163817143 0.0
O O 0.1902999736035506 0.7803778699757468 -0.40656145259468407 0.0
O O 0.1347155647624657 0.9057668401520151 -0.47157418771747234 0.0
O O 0.17836953580524034 0.9305733950817932 -0.25362571723370847 0.0
O O 0.13856339018411062 1.1383360819120198 -0.22512527406075547 0.0
O O 0.18019739558248263 1.4369332052831105 -0.375614809338537 0.0
O O 0.26314701371473587 1.390000746826441 -0.3966756140800844 0.0
N N 0.3901332825614541 1.19397781799067 -0.2639057636208741 0.0
N N 0.5959761704940607 0.9226557015736286 -0.010842132662873958 0.0
C C 0.2625294996803298 1.0432288601859638 -0.3503160738228512 0.0
H H 0.26706849968032975 0.9557088601859638 -0.3176146738228512 0.0
C C 0.19955628335320486 1.038365782474668 -0.40661574876852374 0.0
H H 0.19921528335320485 1.0954357824746679 -0.4553143487685238 0.0
C C 0.1846587214822391 1.1506033603238663 -0.33234952017228336 0.0
H H 0.15598772148223908 1.2033733603238665 -0.3609081201722833 0.0
C C 0.21433289173955788 1.2415561937661084 -0.31482951550484883 0.0
H H 0.21124189173955787 1.2751361937661085 -0.26107811550484883 0.0
C C 0.29483567255274556 1.0298233327784125 -0.41745200178540365 0.0
C C 0.17489156192600996 0.8910646774212957 -0.42101501650016454 0.0
C C 0.1629741155938662 1.0615236066730853 -0.2641835222974431 0.0
C C 0.22183715936610174 1.3623195028931787 -0.3587037939095144 0.0
C C 0.3983862713261039 1.0587659792110038 -0.2452549501854414 0.0
H H 0.37393737132610394 0.9957359792110038 -0.26947315018544143 0.0
C C 0.4304856711307617 0.9856295289500855 -0.20525751165393766 0.0
H H 0.43239687113076175 0.8867995289500855 -0.19591561165393767 0.0
C C 0.4694401482956398 1.0855312191330253 -0.154837874276978 0.0
C C 0.4559487855244986 1.2295894240628649 -0.18042294808118733 0.0
H H 0.47917998552449853 1.2957594240628647 -0.1558029480811873 0.0
C C 0.41749786309709724 1.2882506273402574 -0.22957359142760952 0.0
H H 0.41478906309709723 1.3862206273402575 -0.24115359142760948 0.0
C C 0.5667738825728946 0.8444790121913862 -0.06535291266279768 0.0
H H 0.5771627825728947 0.7492490121913862 -0.06813101266279767 0.0
C C 0.530117555944477 0.9007881573890121 -0.10208920725834304 0.0
H H 0.512746355944477 0.836158157389012 -0.13826920725834305 0.0
C C 0.515254157112833 1.0490604279259574 -0.10806528182565743 0.0
C C 0.5386128714607292 1.1292324104525888 -0.059369982248777944 0.0
H H 0.5285717714607292 1.2242024104525888 -0.05443818224877795 0.0
C C 0.5805995471026578 1.0684996501988258 0.0015440298563656602 0.0
H H 0.5984584471026577 1.1306696501988256 0.03853582985636566 0.0
Zn Zn 0.6649846334435763 1.2908254444425917 0.8343427311165772 0.0
Zn Zn 0.6728789709064539 0.8933318097072057 1.0576867203937947 0.0
O O 0.7273703239945335 1.1505776145143325 0.8089919621972247 0.0
O O 0.6814879243741386 1.1283368248435506 0.931370980189644 0.0
O O 0.7110996119470983 0.9134493533460611 0.958976828143125 0.0
O O 0.8044282711557508 0.7852954068158539 0.9015326105777076 0.0
O O 0.8667043185002906 0.9309324148129176 0.9700863122101965 0.0
O O 0.8167494965540512 0.9304974273334999 0.7453053523980193 0.0
O O 0.863480709636078 1.1126457776791334 0.7263911710575995 0.0
O O 0.8162188021950034 1.4454180443139049 0.8791479131008821 0.0
O O 0.7459508478764055 1.391241711923517 0.902730498140802 0.0
N N 0.6138873184649821 1.1916913770987991 0.7722241853524023 0.0
N N 0.3990041061455749 0.9315562435800849 0.5119807612873579 0.0
C C 0.7432619529784038 1.0195661726960745 0.8655571657992609 0.0
H H 0.7387229529784038 0.9320461726960745 0.8328557657992609 0.0
C C 0.7925610766991438 1.0224319950601157 0.8949338958724614 0.0
H H 0.7929020766991435 1.0795019950601157 0.9436324958724613 0.0
C C 0.8260700651679735 1.12897378134567 0.8482131655878152 0.0
H H 0.8547410651679735 1.18174378134567 0.8767717655878152 0.0
C C 0.774911714248548 1.2552549762768657 0.8071151614057065 0.0
H H 0.7780027142485479 1.2888349762768656 0.7533637614057063 0.0
C C 0.7111696163532777 1.0304782938703434 0.9199014372542041 0.0
C C 0.8156677965154685 0.8920869171269871 0.916134148757137 0.0
C C 0.8414304623208174 1.0650913710399614 0.7721731965148715 0.0
C C 0.7809132934928535 1.3649651924953563 0.861384701709185 0.0
C C 0.6129857818137395 1.0492071399941674 0.7555776126032788 0.0
H H 0.6374346818137396 0.9861771399941673 0.7797958126032789 0.0
C C 0.5709714660443588 1.0032250168189922 0.6958277891173664 0.0
H H 0.5690602660443588 0.9043950168189923 0.6864858891173664 0.0
C C 0.5334837293904174 1.102399010900399 0.6634405966112478 0.0
C C 0.5371522620823682 1.231947795605466 0.6828727521186414 0.0
H H 0.5139210620823682 1.2981177956054661 0.6582527521186413 0.0
C C 0.5717807149506361 1.2950223049787688 0.726933496241817 0.0
H H 0.5744895149506362 1.3929923049787691 0.738513496241817 0.0
C C 0.4214163459642649 0.8575904980347491 0.5560939937043784 0.0
H H 0.41102744596426494 0.762360498034749 0.5588720937043784 0.0
C C 0.4671256379506104 0.8969636534114998 0.6137453539384675 0.0
H H 0.4844968379506103 0.8323336534114999 0.6499253539384675 0.0
C C 0.4879271400413053 1.040847005942188 0.5999369538035462 0.0
C C 0.450539718276771 1.1233270096640087 0.5426544129471229 0.0
H H 0.46058081827677094 1.2182970096640087 0.537722612947123 0.0
C C 0.41732888599731593 1.0913297291684327 0.5026056018159388 0.0
H H 0.3994699859973159 1.1534997291684326 0.465613801815939 0.0
Zn Zn 0.17450872830962022 -0.7955475304244808 0.3372709740428254 0.0
Zn Zn 0.16889680298190834 -0.3820810004681936 0.5434020368117016 0.0
O O 0.22926222374093985 -0.6762138507462027 0.30219995904411506 0.0
O O 0.17752089599894663 -0.6309515084492847 0.43136862115206814 0.0
O O 0.20773698490512257 -0.40044580996643947 0.4594774813464365 0.0
O O 0.295490396301723 -0.2951466044044741 0.39490690459756267 0.0
O O 0.36667998985071054 -0.41056660926083416 0.4654233847261161 0.0
O O 0.31562232416475106 -0.4238530327269925 0.2572447150328504 0.0
O O 0.3613607187464326 -0.6321719960031309 0.23381325395827982 0.0
O O 0.3114175353528333 -0.9626298235898718 0.3692729999314452 0.0
O O 0.2471279269383261 -0.8965610698604817 0.39913977325465055 0.0
N N 0.11959866502504689 -0.6964206306975895 0.27408614000674425 0.0
N N -0.10074973237890911 -0.4476860097960437 0.008494081797197054 0.0
C C 0.24329007860240665 -0.5241977208656353 0.3639590159995566 0.0
H H 0.23875107860240666 -0.4366777208656354 0.3312576159995566 0.0
C C 0.29855565015428326 -0.529466475482427 0.3931726320276493 0.0
H H 0.2988966501542833 -0.5865364754824272 0.4418712320276493 0.0
C C 0.32048073051473297 -0.6340938115428422 0.343873420830224 0.0
H H 0.34915173051473297 -0.686863811542842 0.3724320208302239 0.0
C C 0.27340991756735855 -0.7327478466513402 0.30440933490702715 0.0
H H 0.27650091756735856 -0.7663278466513403 0.25065793490702715 0.0
C C 0.20566124143213463 -0.5370475210028414 0.41087447400221616 0.0
C C 0.31874788298427226 -0.3958297299476049 0.41818490340539904 0.0
C C 0.33744074878999286 -0.5710465002639838 0.27253005601505403 0.0
C C 0.27747262084810626 -0.8860605118729308 0.3606237412454955 0.0
C C 0.10815983742254542 -0.550497117525496 0.24820236027685108 0.0
H H 0.13260873742254542 -0.48746711752549604 0.2724205602768511 0.0
C C 0.06502543093423765 -0.5049630240586969 0.19225635395146634 0.0
H H 0.06311423093423765 -0.4061330240586968 0.18291445395146638 0.0
C C 0.03468208025050881 -0.5849683387327477 0.1630249749014727 0.0
C C 0.034723343662388134 -0.724509815133729 0.1731211791360769 0.0
H H 0.011492143662388144 -0.790679815133729 0.14850117913607688 0.0
C C 0.07797981065874915 -0.798529653234287 0.23391736478804875 0.0
H H 0.08068861065874915 -0.896499653234287 0.24549736478804876 0.0
C C -0.07753801762119651 -0.34596471076547325 0.04636192017059545 0.0
H H -0.0879269176211965 -0.25073471076547316 0.04914002017059544 0.0
C C -0.036540263037321705 -0.39363699377303396 0.09951703990852656 0.0
H H -0.019169063037321705 -0.329006993773034 0.13569703990852655 0.0
C C -0.00879037398584893 -0.5383575117883669 0.10564189962528768 0.0
C C -0.042820425030706204 -0.6438211722434048 0.04749381782710514 0.0
H H -0.032779325030706206 -0.738791172243405 0.04256201782710514 0.0
C C -0.08641799393981553 -0.5762020160607054 -0.0016385144025288104 0.0
H H -0.10427689393981553 -0.6383720160607055 -0.038630314402528815 0.0
Zn Zn -0.17577024095587024 -0.7837940908608245 -0.8464521841907265 0.0
Zn Zn -0.1800362021588683 -0.39800379071988806 -1.057444317649141 0.0
O O -0.23777352965242826 -0.6611648499088807 -0.8144728575390215 0.0
O O -0.18198128507810882 -0.6272214134145297 -0.9351492991034072 0.0
O O -0.20066097087397972 -0.41306857171556843 -0.9506616858184308 0.0
O O -0.30273045444541946 -0.2963355338470904 -0.9064815654749635 0.0
O O -0.3633536582084584 -0.41542318602580475 -0.9617206660576392 0.0
O O -0.3235059506185335 -0.4379557887984667 -0.7584500876726397 0.0
O O -0.37143289979957844 -0.633932756721865 -0.7339674573827926 0.0
O O -0.3163539011209847 -0.9520596881689489 -0.8649451732728772 0.0
O O -0.24293095952847948 -0.8838265747564011 -0.901942634444015 0.0
N N -0.11733663224303224 -0.7019371237837085 -0.7648644909159333 0.0
N N 0.10515407369870756 -0.43055346981006337 -0.5070568797272843 0.0
C C -0.23560382341776723 -0.5273597017515211 -0.8530984115456661 0.0
H H -0.2310648234177672 -0.43983970175152104 -0.8203970115456661 0.0
C C -0.29564091239172136 -0.5490402584114022 -0.8957894470044881 0.0
H H -0.29598191239172134 -0.6061102584114022 -0.9444880470044881 0.0
C C -0.3164933011121616 -0.6234522492993737 -0.8420661754218123 0.0
H H -0.3451643011121616 -0.6762222492993737 -0.8706247754218123 0.0
C C -0.2722905117571712 -0.739791798476961 -0.8092125050803372 0.0
H H -0.2753815117571713 -0.7733717984769611 -0.7554611050803369 0.0
C C -0.20493112613902828 -0.5399970278348243 -0.9178751803523658 0.0
C C -0.32283783122839016 -0.39583382773211967 -0.9242627754761481 0.0
C C -0.3289424258623208 -0.5571369616657159 -0.7633320488225899 0.0
C C -0.27400384450962073 -0.8735252338940461 -0.8562201910906668 0.0
C C -0.10931315393058481 -0.5696155664009686 -0.7563094056247759 0.0
H H -0.1337620539305848 -0.5065855664009685 -0.7805276056247759 0.0
C C -0.06108522114251443 -0.4937192143537252 -0.689769510274567 0.0
H H -0.05917402114251443 -0.39488921435372515 -0.6804276102745671 0.0
C C -0.03392784786780447 -0.6047192994935138 -0.6611854695472023 0.0
C C -0.03155340807449127 -0.7294283330849622 -0.6812681736747134 0.0
H H -0.00832220807449128 -0.7955983330849622 -0.6566481736747133 0.0
C C -0.07301593819629576 -0.770302749774154 -0.723360235713031 0.0
H H -0.07572473819629574 -0.8682727497741541 -0.7349402357130309 0.0
C C 0.06801480978627325 -0.3638186495517018 -0.5584166477203933 0.0
H H 0.07840370978627326 -0.26858864955170175 -0.5611947477203933 0.0
C C 0.027716679718032235 -0.3896947655925221 -0.6177525073874939 0.0
H H 0.010345479718032222 -0.32506476559252206 -0.6539325073874939 0.0
C C 0.02257595680376935 -0.5352160119879389 -0.5987938008251283 0.0
C C 0.044501370730885836 -0.6324867174896049 -0.5537890194110793 0.0
H H 0.034460270730885825 -0.7274567174896049 -0.5488572194110795 0.0
C C 0.08305748435863107 -0.5690507231844232 -0.4982065543909097 0.0
H H 0.10091638435863105 -0.6312207231844231 -0.4612147543909098 0.0
Zn Zn 0.6714356356917335 -0.3171556434291457 0.34271958145426923 0.0
Zn Zn 0.6668298061817685 0.0910262377910482 0.5452816759756677 0.0
O O 0.7259658548524061 -0.16522990534187268 0.29924697613462864 0.0
O O 0.6765031243778545 -0.13916337633099324 0.4323835557257079 0.0
O O 0.699789276911589 0.07553835898026293 0.45387386230551335 0.0
O O 0.8032079877901644 0.23073698261664105 0.39997822889570117 0.0
O O 0.8596039613941594 0.09532913357305668 0.4639118644036725 0.0
O O 0.8168561213979119 0.07042219220879567 0.2566834446457982 0.0
O O 0.8648731147859017 -0.12858452724347602 0.22208131400274023 0.0
O O 0.8113154658868728 -0.4521392082201829 0.37041055943005025 0.0
O O 0.7335367816206473 -0.39142958391295135 0.3913512100196737 0.0
N N 0.6179052861787181 -0.18190485467934692 0.27318081294685814 0.0
N N 0.4019486459074077 0.06526397188278867 0.008498582778648367 0.0
C C 0.7395543335602666 -0.0343281858737457 0.35790023074221206 0.0
H H 0.7350153335602665 0.05319181412625434 0.32519883074221206 0.0
C C 0.8046409605304636 -0.03827143683466793 0.40644179125232033 0.0
H H 0.8049819605304636 -0.09534143683466788 0.4551403912523203 0.0
C C 0.8157779074193854 -0.14912582164476187 0.3312445886506037 0.0
H H 0.8444489074193854 -0.20189582164476186 0.3598031886506037 0.0
C C 0.7775103593340067 -0.24041522139523053 0.3091591971426681 0.0
H H 0.7806013593340067 -0.2739952213952306 0.25540779714266815 0.0
C C 0.7002131657990691 -0.019473355354444805 0.4117656632503129 0.0
C C 0.8215020929695604 0.09681953832166364 0.4263334453226343 0.0
C C 0.828667854695656 -0.06759678730468102 0.2620658789377084 0.0
C C 0.7852682850514335 -0.3682869620730852 0.37274888571181314 0.0
C C 0.6037657348884345 -0.06809651427849094 0.24417503357232723 0.0
H H 0.6282146348884344 -0.005066514278490921 0.26839323357232725 0.0
C C 0.5646915548791988 0.00024246777868296377 0.18677058995700646 0.0
H H 0.5627803548791986 0.09907246777868293 0.1774286899570065 0.0
C C 0.5313375737743247 -0.08680532893961243 0.16585363714524182 0.0
C C 0.5372968264106317 -0.23837291490981807 0.182798028627441 0.0
H H 0.5140656264106318 -0.304542914909818 0.158178028627441 0.0
C C 0.5798932522090255 -0.2699512356625305 0.23511879129544577 0.0
H H 0.5826020522090256 -0.3679212356625305 0.24669879129544575 0.0
C C 0.4306618372755918 0.15495281077418513 0.06620737704987084 0.0
H H 0.42027293727559184 0.2501828107741852 0.06898547704987083 0.0
C C 0.4689515783924275 0.10006844914129982 0.1029730624951694 0.0
H H 0.48632277839242744 0.1646984491412998 0.1391530624951694 0.0
C C 0.4811217167807229 -0.026376598004886898 0.10342683880425309 0.0
C C 0.45837781040990144 -0.13369037749455473 0.04203424410045814 0.0
H H 0.46841891040990147 -0.2286603774945547 0.03710244410045815 0.0
C C 0.41027780424730015 -0.07987248010340002 0.00034494347228909223 0.0
H H 0.39241890424730014 -0.14204248010339995 -0.036646856527710915 0.0
Zn Zn 0.3334966034112264 -0.29384649957138637 -0.8369168057123426 0.0
Zn Zn 0.33119215975831606 0.1010130784045534 -1.0423900156433 0.0
O O 0.269111271678909 -0.15205941755408772 -0.8047260271365665 0.0
O O 0.3158750592961197 -0.14154324210725108 -0.9351378518855239 0.0
O O 0.29247541841610464 0.08250036265158256 -0.9672511058710529 0.0
O O 0.1972836675228082 0.22990601983172435 -0.906668529126288 0.0
O O 0.1286671703265063 0.07507857316010767 -0.9740322519050297 0.0
O O 0.1772795687095529 0.06409918581457472 -0.7590224436623689 0.0
O O 0.13948831991942182 -0.12914675205233309 -0.719052533878212 0.0
O O 0.18196894276801873 -0.4413041105193404 -0.8799382731951556 0.0
O O 0.2588736399738094 -0.39020595837796795 -0.9021144214955962 0.0
N N 0.38524561442703775 -0.19264208520327847 -0.7619590531517668 0.0
N N 0.5929745737072006 0.05231905323004355 -0.5128622161864473 0.0
C C 0.258258231627568 -0.022184840728309386 -0.8638727374082604 0.0
H H 0.26279723162756796 0.06533515927169065 -0.8311713374082604 0.0
C C 0.20113426324824266 -0.030182047312979552 -0.89430273540955 0.0
H H 0.20079326324824265 -0.08725204731297949 -0.9430013354095499 0.0
C C 0.17414264608214894 -0.15120246592290745 -0.8438940608018048 0.0
H H 0.1454716460821489 -0.20397246592290744 -0.8724526608018048 0.0
C C 0.21609061306782787 -0.24414086628202297 -0.8205452954084481 0.0
H H 0.2129996130678279 -0.277720866282023 -0.7667938954084479 0.0
C C 0.29701729035949587 -0.021519436678649355 -0.9219648815426248 0.0
C C 0.17170902207295818 0.08109090298248292 -0.9261710397620786 0.0
C C 0.1692486239149402 -0.052476550016153915 -0.7687616148760021 0.0
C C 0.21885623353546127 -0.3668470584347729 -0.8678024626698151 0.0
C C 0.392711560496805 -0.06276428307356957 -0.7443428881371317 0.0
H H 0.368262660496805 0.00026571692643046076 -0.7685610881371316 0.0
C C 0.42758014911136377 -0.003638619191009751 -0.6947472762638409 0.0
H H 0.4294913491113637 0.09519138080899021 -0.685405376263841 0.0
C C 0.47216190651518625 -0.07959211017413842 -0.6548918721173731 0.0
C C 0.46596865610943433 -0.22215548938578425 -0.6783699575178033 0.0
H H 0.4891998561094344 -0.2883254893857842 -0.6537499575178032 0.0
C C 0.41868637198623365 -0.2938023448893189 -0.7382372915793773 0.0
H H 0.41597757198623364 -0.3917723448893189 -0.7498172915793774 0.0
C C 0.5740941504568343 0.15489605168561077 -0.5600166100490931 0.0
H H 0.5844830504568344 0.2501260516856108 -0.5627947100490931 0.0
C C 0.534034450366239 0.11676906445519118 -0.608653900922136 0.0
H H 0.516663250366239 0.1813990644551912 -0.644833900922136 0.0
C C 0.5168723234363928 -0.03707848190769869 -0.593840848851448 0.0
C C 0.5428133995673463 -0.14083594488058043 -0.5488045138645214 0.0
H H 0.5327722995673464 -0.2358059448805804 -0.5438727138645215 0.0
C C 0.5841090578473218 -0.08075059087089835 -0.504697661843216 0.0
H H 0.6019679578473217 -0.1429205908708983 -0.4677058618432161 0.0
