_cell_length_a 27.1013
_cell_length_b 9.27321
_cell_length_c 16.979215
_cell_angle_alpha 90.0
_cell_angle_beta 99.1565
_cell_angle_gamma 90.0
_symmetry_space_group_name_H-M         'P 1'
_symmetry_Int_Tables_number            1
loop_
_symmetry_equiv_pos_as_xyz
   'x, y, z'
                         
loop_
_atom_site_label
_atom_site_type_symbol
_atom_site_fract_x 
_atom_site_fract_y
_atom_site_fract_z
_atom_site_charge
Zn Zn -0.17351037324926397 0.7971517453387216 -0.34164976292386934 0.0
Zn Zn -0.17624698451107815 0.39603896255539933 -0.554662301229104 0.0
O O -0.23103736905574335 0.6555613985056096 -0.3159365365259546 0.0
O O -0.18305939404595928 0.6327520376392028 -0.4278955460401354 0.0
O O -0.20660478210910513 0.4237105106810443 -0.45095283529319463 0.0
O O -0.3022830454215407 0.287994301179315 -0.3966467017853273 0.0
O O -0.3638382948135317 0.4202573553211284 -0.47123313360685115 0.0
O O -0.3140916909476864 0.44281676709255896 -0.24906423103421926 0.0
O O -0.36494118164693934 0.6145925380441293 -0.22759081649774165 0.0
O O -0.31513993152320513 0.9464216309726013 -0.3736573079796671 0.0
O O -0.24241984390497165 0.8872696322018252 -0.4019547699484117 0.0
N N -0.11675946369554054 0.6921905553060351 -0.2637902918502777 0.0
N N 0.09630189621771655 0.43259155198674804 -0.005564092822286926 0.0
C C -0.247195790639718 0.5323851495046245 -0.36269254374413806 0.0
H H -0.242656790639718 0.4448651495046245 -0.32999114374413807 0.0
C C -0.291016681522263 0.5387206643708297 -0.3947353060450761 0.0
H H -0.291357681522263 0.5957906643708297 -0.44343390604507615 0.0
C C -0.31681605111984984 0.641312651039141 -0.33325131643183026 0.0
H H -0.3454870511198498 0.6940826510391409 -0.36180991643183025 0.0
C C -0.28100482981771574 0.7299719547919064 -0.31413902439380914 0.0
H H -0.2840958298177157 0.7635519547919064 -0.2603876243938092 0.0
C C -0.2071346172098154 0.5298555107828221 -0.42592827897488184 0.0
C C -0.31834291736551057 0.40726263811586827 -0.4213766163474296 0.0
C C -0.3407927478585216 0.560244478063279 -0.269259683679012 0.0
C C -0.2798767197841337 0.8684018477521456 -0.3643754709471714 0.0
C C -0.10420850641639896 0.5456680976320993 -0.2488186439103888 0.0
H H -0.12865740641639895 0.48263809763209936 -0.2730368439103888 0.0
C C -0.06530306838256807 0.4980522650721914 -0.19263244701831772 0.0
H H -0.06339186838256805 0.39922226507219133 -0.18329054701831776 0.0
C C -0.031139831328769844 0.5908697458195663 -0.1641260654552852 0.0
C C -0.039023490966364 0.7388175928823909 -0.1846764209256468 0.0
H H -0.015792290966364 0.8049875928823909 -0.1600564209256468 0.0
C C -0.07472076892611042 0.7736532004015105 -0.2336455829396019 0.0
H H -0.07742956892611041 0.8716232004015106 -0.24522558293960187 0.0
C C 0.07491997579525926 0.3496350682138769 -0.05778319743384719 0.0
H H 0.08530887579525927 0.2544050682138769 -0.060561297433847194 0.0
C C 0.029609355713206036 0.38334460095768697 -0.11013205911964749 0.0
H H 0.012238155713206033 0.318714600957687 -0.1463120591196475 0.0
C C 0.019852110005168646 0.5461977424084895 -0.10552022943428295 0.0
C C 0.03673004247402885 0.6239562822488237 -0.052445677673078527 0.0
H H 0.026688942474028855 0.7189262822488238 -0.04751387767307853 0.0
C C 0.08095527437956596 0.5766093786380135 -0.0033829811307983858 0.0
H H 0.09881417437956598 0.6387793786380136 0.03360881886920162 0.0
Zn Zn 0.1695705794183474 0.80022862810895 0.8439227261331007 0.0
Zn Zn 0.16825349673912252 0.4013439033071547 1.0512689340135672 0.0
O O 0.23485443649017393 0.6499465794161616 0.8069642083639129 0.0
O O 0.17527391884686963 0.6393796697410111 0.920919924224578 0.0
O O 0.2135352427297919 0.41841080316453433 0.9621255589993147 0.0
O O 0.297383933914188 0.2823391031691872 0.8920469090833735 0.0
O O 0.36486290310953334 0.41227812372383954 0.9710665615804258 0.0
O O 0.31709080344171914 0.4322418844050897 0.754674379016562 0.0
O O 0.36659554775404657 0.6217763740945135 0.72445975191739 0.0
O O 0.32094328548497414 0.9556910507580626 0.87663276960812 0.0
O O 0.24572455158810222 0.8932780478412863 0.9060079729804013 0.0
N N 0.11025344147087383 0.692316452871078 0.758038650662286 0.0
N N -0.10286007129797284 0.43602572395135125 0.5003502778031633 0.0
C C 0.23793239524992899 0.5318295982511956 0.8593328005913007 0.0
H H 0.23339339524992897 0.4443095982511955 0.8266314005913007 0.0
C C 0.29545294067070466 0.5529545316011171 0.8946612597160166 0.0
H H 0.29579394067070464 0.610024531601117 0.9433598597160167 0.0
C C 0.31771095981183184 0.6422858009057278 0.8371362161033851 0.0
H H 0.3463819598118318 0.6950558009057277 0.865694816103385 0.0
C C 0.28130914727618395 0.739249350880861 0.8094262684113213 0.0
H H 0.284400147276184 0.7728293508808611 0.7556748684113211 0.0
C C 0.20735377813905992 0.523693505259073 0.9110665558341382 0.0
C C 0.3271875987098324 0.4134315948517778 0.9272032841072639 0.0
C C 0.33600446285981445 0.5595896654068504 0.7653619419993418 0.0
C C 0.2778350577010997 0.8725800305907994 0.8713023218587369 0.0
C C 0.10943220624284933 0.5622446776618396 0.7409168543824888 0.0
H H 0.13388110624284932 0.4992146776618395 0.7651350543824887 0.0
C C 0.06252833797279231 0.49993412208550203 0.6980916068154601 0.0
H H 0.060617137972792313 0.4011041220855021 0.6887497068154601 0.0
C C 0.026929527765496595 0.5886068628584716 0.6574866223887343 0.0
C C 0.03260727973141949 0.7294829574894752 0.681400079791764 0.0
H H 0.009376079731419493 0.7956529574894752 0.6567800797917639 0.0
C C 0.07493022005177133 0.7907010756074151 0.7353320712778296 0.0
H H 0.07763902005177133 0.8886710756074152 0.7469120712778295 0.0
C C -0.079022802622814 0.3468896739107 0.5514933087901069 0.0
H H -0.08941170262281403 0.2516596739107 0.554271408790107 0.0
C C -0.027075367030888187 0.4038302186618823 0.6047412860582768 0.0
H H -0.0097041670308882 0.33920021866188227 0.6409212860582768 0.0
C C -0.014507637174626116 0.5288564261380728 0.5995497665713985 0.0
C C -0.04473803884495846 0.6245756743869822 0.5512064346429342 0.0
H H -0.03469693884495845 0.7195456743869822 0.5462746346429342 0.0
C C -0.08300824509889335 0.5872225545094674 0.5033364051403879 0.0
H H -0.10086714509889334 0.6493925545094673 0.46634460514038795 0.0
Zn Zn 0.3215409868922101 1.2964998271143098 -0.3400555722691396 0.0
Zn Zn 0.3328771997293306 0.8953685125920355 -0.5512846414575208 0.0
O O 0.26938998901719385 1.1635328729916015 -0.29940659056862584 0.0
O O 0.3236990480115867 1.136643209588918 -0.4208814303941501 0.0
O O 0.29175898204695366 0.9195409042023636 -0.45701876665603464 0.0
O O 0.19826442593080754 0.7950475778546325 -0.39329231076414023 0.0
O O 0.13438122514207082 0.9039374084530543 -0.4661720972809443 0.0
O O 0.1825388513407651 0.9364201466399207 -0.2573674972847406 0.0
O O 0.13490386435135887 1.1368182807142357 -0.22718928788269072 0.0
O O 0.18487439757625004 1.4397729021638461 -0.37475895080513444 0.0
O O 0.261850111891498 1.4041765392462646 -0.39864369088319745 0.0
N N 0.3871747980973029 1.2073247894899908 -0.26130043080418147 0.0
N N 0.5965237107189999 0.9315353009494745 -0.01176623202070613 0.0
C C 0.2599836802054198 1.0272848525117249 -0.3585087842499058 0.0
H H 0.26452268020541975 0.9397648525117247 -0.3258073842499058 0.0
C C 0.1997031515746159 1.0315236736315099 -0.40537122358531175 0.0
H H 0.19936215157461593 1.0885936736315098 -0.4540698235853117 0.0
C C 0.17963373080708175 1.1359928072066774 -0.33830597683315866 0.0
H H 0.15096273080708172 1.1887628072066778 -0.3668645768331586 0.0
C C 0.22258179062618025 1.2488712985374857 -0.30908643367488253 0.0
H H 0.21949079062618024 1.2824512985374859 -0.2553350336748826 0.0
C C 0.2976684777786104 1.0224546727617578 -0.4109251852615735 0.0
C C 0.1789689016502871 0.9038579581519927 -0.41777387716120423 0.0
C C 0.16733553352247205 1.0651905831540747 -0.26951110932670314 0.0
C C 0.2253400171204765 1.3643117951748727 -0.36248760862584467 0.0
C C 0.39571397385527496 1.0571443697007852 -0.2536007002601105 0.0
H H 0.3712650738552751 0.9941143697007851 -0.2778189002601105 0.0
C C 0.4327784137080431 1.0050054313897472 -0.20247947295355678 0.0
H H 0.4346896137080431 0.9061754313897473 -0.1931375729535568 0.0
C C 0.4709117828754457 1.0946667643429295 -0.15900627447739943 0.0
C C 0.4691409491234229 1.2419496290078784 -0.1674426030862124 0.0
H H 0.4923721491234228 1.3081196290078785 -0.14282260308621236 0.0
C C 0.42258749330677037 1.2935312639787553 -0.22684889682794146 0.0
H H 0.4198786933067703 1.3915012639787554 -0.23842889682794144 0.0
C C 0.5785904537896224 0.8599100870090663 -0.05792230812339387 0.0
H H 0.5889793537896224 0.7646800870090663 -0.06070040812339386 0.0
C C 0.5327395963430724 0.9048559741336778 -0.10858863030538862 0.0
H H 0.5153683963430725 0.8402259741336777 -0.14476863030538864 0.0
C C 0.5124358007706694 1.0273805504681586 -0.10459396571087737 0.0
C C 0.5467711535819357 1.1315841805315703 -0.04291491668318687 0.0
H H 0.5367300535819358 1.2265541805315703 -0.03798311668318687 0.0
C C 0.5789566699584221 1.0710599893285084 -0.0012171000011617743 0.0
H H 0.5968155699584221 1.1332299893285083 0.03577469999883823 0.0
Zn Zn 0.6779843506477317 1.299876399281906 0.8510207519139115 0.0
Zn Zn 0.667818635515916 0.8975546256055391 1.0519896788162733 0.0
O O 0.7308158121497398 1.153439062312466 0.7982464101762092 0.0
O O 0.6743928053731081 1.1331104816210236 0.9165992760906618 0.0
O O 0.7073011789371931 0.9256854302844719 0.9563610735054464 0.0
O O 0.7985058343462962 0.7731349020222934 0.8946250464812345 0.0
O O 0.8661803440676262 0.9236428059589894 0.9737589587662144 0.0
O O 0.8179172186598187 0.9363530450441283 0.7586696607149385 0.0
O O 0.8620467744819568 1.1216210196343632 0.7371722726798259 0.0
O O 0.8166733684013658 1.4318153750772995 0.872496872057549 0.0
O O 0.7379364299423059 1.4008713302267688 0.8935176663529752 0.0
N N 0.609003157428416 1.184066911065963 0.7685506610876097 0.0
N N 0.40297050181017535 0.9377534177260144 0.501281231073665 0.0
C C 0.7413062450823891 1.0369088472128665 0.8489919547231928 0.0
H H 0.7367672450823891 0.9493888472128663 0.8162905547231928 0.0
C C 0.8019995375124024 1.0488742874604948 0.900725915195586 0.0
H H 0.8023405375124021 1.1059442874604948 0.949424515195586 0.0
C C 0.8194667565634507 1.1425711936535372 0.8441589635410887 0.0
H H 0.8481377565634507 1.1953411936535372 0.8727175635410886 0.0
C C 0.7805892081484382 1.2422374593773484 0.8038606013062951 0.0
H H 0.7836802081484382 1.2758174593773486 0.750109201306295 0.0
C C 0.7101563332899838 1.0329787943491757 0.9230885927868548 0.0
C C 0.8221715309176322 0.9099897676409754 0.9268193375554953 0.0
C C 0.8371162666409846 1.062674778176745 0.7770011654025958 0.0
C C 0.7808526813843315 1.3693985725656463 0.866926244818558 0.0
C C 0.6069852588838849 1.0502644971461792 0.7512286524766678 0.0
H H 0.6314341588838849 0.987234497146179 0.7754468524766678 0.0
C C 0.5680077015594351 0.9898488621545122 0.6909417433125182 0.0
H H 0.566096501559435 0.8910188621545122 0.6815998433125182 0.0
C C 0.5347040492150572 1.089026628998625 0.6606847661426887 0.0
C C 0.5310911877249339 1.2334170663337913 0.6778199631181275 0.0
H H 0.5078599877249339 1.2995870663337914 0.6531999631181274 0.0
C C 0.5720006594000066 1.2895854133414355 0.7262044339452478 0.0
H H 0.5747094594000065 1.3875554133414358 0.7377844339452478 0.0
C C 0.42551394793421365 0.8580039103841313 0.5592782105827412 0.0
H H 0.4151250479342137 0.7627739103841312 0.5620563105827412 0.0
C C 0.46636693605401336 0.8864522703480865 0.5986169599587486 0.0
H H 0.4837381360540133 0.8218222703480865 0.6347969599587486 0.0
C C 0.4855003169899094 1.0423172719371896 0.6081584150836974 0.0
C C 0.46139633068332575 1.1181264886372146 0.5539716150218045 0.0
H H 0.4714374306833257 1.2130964886372144 0.5490398150218045 0.0
C C 0.4151878702214891 1.0828271727602456 0.5071907070482624 0.0
H H 0.39732897022148916 1.1449971727602453 0.4701989070482626 0.0
Zn Zn 0.17203920362943398 -0.786289563960942 0.3368662029574113 0.0
Zn Zn 0.16972260341489326 -0.4053370725864889 0.5424822303336869 0.0
O O 0.2281700229062451 -0.6643319001399463 0.30513766374639006 0.0
O O 0.17776464973157924 -0.6221851601120696 0.42303556500682454 0.0
O O 0.20744905088436116 -0.4016655695477592 0.4566252900099566 0.0
O O 0.2973420023832544 -0.2885988987229384 0.3968926118036915 0.0
O O 0.36764454861853385 -0.4167179000537756 0.45875664395883364 0.0
O O 0.3182341941920855 -0.4312168615351242 0.2495951269893411 0.0
O O 0.3649596633045007 -0.6111056218583886 0.22894026426101166 0.0
O O 0.31309086864376795 -0.9518759127250225 0.37594633597613447 0.0
O O 0.23833032932943465 -0.9021164084280956 0.39934497260703483 0.0
N N 0.11601522117633961 -0.6873378643009148 0.26857956348152556 0.0
N N -0.10031891119837519 -0.44487060494128833 0.0012363596265488792 0.0
C C 0.24030302207080093 -0.5379165991344877 0.35790525062998685 0.0
H H 0.23576402207080097 -0.4503965991344878 0.32520385062998686 0.0
C C 0.2980425187927068 -0.5311990890334617 0.3992976625095691 0.0
H H 0.2983835187927068 -0.5882690890334619 0.4479962625095691 0.0
C C 0.31553134549544015 -0.63961217867235 0.3375766604416737 0.0
H H 0.3442023454954402 -0.69238217867235 0.3661352604416737 0.0
C C 0.27494988514715707 -0.7507224192331138 0.3118041599695205 0.0
H H 0.2780408851471571 -0.784302419233114 0.25805275996952054 0.0
C C 0.20262284866175267 -0.5410456237116588 0.4169644944651209 0.0
C C 0.32039545403059155 -0.4114345371077471 0.4243816414229637 0.0
C C 0.3367960900304282 -0.5650638612281553 0.27449086926190225 0.0
C C 0.2784242203978962 -0.871143043366995 0.3620239608503871 0.0
C C 0.1044472370732603 -0.5716302182135958 0.24642734743759181 0.0
H H 0.12889613707326028 -0.5086002182135958 0.27064554743759184 0.0
C C 0.06507951289205915 -0.508410214330031 0.20090941852384256 0.0
H H 0.06316831289205914 -0.40958021433003095 0.19156751852384257 0.0
C C 0.028526254449616144 -0.5899685542847857 0.1677588886260342 0.0
C C 0.038293784171733986 -0.7463150052812612 0.1752776741468204 0.0
H H 0.015062584171733995 -0.8124850052812611 0.1506576741468204 0.0
C C 0.07922539802104628 -0.7732097022937372 0.22530766495142554 0.0
H H 0.08193419802104628 -0.8711797022937372 0.23688766495142552 0.0
C C -0.06825449996262041 -0.3448852665522071 0.06146242492046583 0.0
H H -0.07864339996262042 -0.24965526655220702 0.06424052492046584 0.0
C C -0.02847299513782645 -0.4042175050260646 0.10431675437465292 0.0
H H -0.011101795137826448 -0.33958750502606466 0.14049675437465292 0.0
C C -0.016670308345740993 -0.5280060548067496 0.10325739411865802 0.0
C C -0.044599871540309574 -0.6207235688406002 0.05416129136704539 0.0
H H -0.03455877154030958 -0.7156935688406003 0.049229491367045394 0.0
C C -0.08155397000827472 -0.5811074641606288 0.006721991844223297 0.0
H H -0.09941287000827473 -0.6432774641606287 -0.030269808155776703 0.0
Zn Zn -0.1732247607401759 -0.7937519536613387 -0.8410570013951421 0.0
Zn Zn -0.171620371803444 -0.39465299281962457 -1.0513529082609354 0.0
O O -0.2373403425640425 -0.6588796126194042 -0.8058906258421035 0.0
O O -0.17794259540629645 -0.6390079034452882 -0.9281509649492649 0.0
O O -0.20466824069822057 -0.4137292688332077 -0.9501161372411012 0.0
O O -0.3021123321530003 -0.28993832876898096 -0.9062434529582647 0.0
O O -0.36861656713484137 -0.41621354470437366 -0.9659807667647632 0.0
O O -0.31956903659494323 -0.44549632320039767 -0.7547885164447645 0.0
O O -0.3650975450449445 -0.6162833242944695 -0.7370119466467608 0.0
O O -0.31562957509294187 -0.9556662235872662 -0.8786003790075139 0.0
O O -0.24482216780699975 -0.8929829083049062 -0.9046688158626176 0.0
N N -0.10834923366264292 -0.6870616010469058 -0.7582794035329974 0.0
N N 0.10192931737127554 -0.4318972893148298 -0.5068820985812066 0.0
C C -0.23787417250615225 -0.5233746487231854 -0.8521460863633129 0.0
H H -0.2333351725061522 -0.4358546487231853 -0.8194446863633129 0.0
C C -0.29725887254589906 -0.5479651403196003 -0.9038082162316908 0.0
H H -0.29759987254589904 -0.6050351403196003 -0.9525068162316909 0.0
C C -0.31957795954137097 -0.645543038133122 -0.8449386183996529 0.0
H H -0.348248959541371 -0.698313038133122 -0.8734972183996529 0.0
C C -0.27823697343655424 -0.7452432656077819 -0.8023856407789433 0.0
H H -0.2813279734365543 -0.778823265607782 -0.748634240778943 0.0
C C -0.2039445954667172 -0.5266306698191107 -0.9236242397310093 0.0
C C -0.3214312343103348 -0.4064342205769847 -0.9201880905476002 0.0
C C -0.33593198675995195 -0.5614659793095668 -0.7678469975651142 0.0
C C -0.28111302633599716 -0.8713737343912553 -0.8646991817294711 0.0
C C -0.10238162857934505 -0.5504585393615921 -0.7466261125771028 0.0
H H -0.12683052857934504 -0.48742853936159203 -0.7708443125771028 0.0
C C -0.06788980161950396 -0.5091539534000995 -0.6922616512259737 0.0
H H -0.06597860161950396 -0.41032395340009953 -0.6829197512259737 0.0
C C -0.027103383481995348 -0.5883833801961041 -0.6641711790274758 0.0
C C -0.03600361225350228 -0.7348375354037063 -0.6781546491854388 0.0
H H -0.012772412253502279 -0.8010075354037063 -0.6535346491854387 0.0
C C -0.0786992928260353 -0.7808761469337293 -0.7320408605554858 0.0
H H -0.08140809282603528 -0.8788461469337295 -0.7436208605554857 0.0
C C 0.07761320162736669 -0.34593722114797043 -0.5538109036875718 0.0
H H 0.0880021016273667 -0.25070722114797034 -0.5565890036875718 0.0
C C 0.028748813883588985 -0.40087380489249325 -0.616935282296626 0.0
H H 0.011377613883588999 -0.3362438048924932 -0.653115282296626 0.0
C C 0.016667640771408573 -0.5461010819356805 -0.5998250496771005 0.0
C C 0.037867430584622684 -0.6342262451972822 -0.5538348469481348 0.0
H H 0.027826330584622687 -0.7291962451972822 -0.548903046948135 0.0
C C 0.08106263103418343 -0.57707388348172 -0.5066288872203325 0.0
H H 0.09892153103418341 -0.63924388348172 -0.46963708722033265 0.0
Zn Zn 0.6752006553754846 -0.3020126928325751 0.3407096256904807 0.0
Zn Zn 0.6685430283356307 0.10668139519614045 0.5511867372641414 0.0
O O 0.7292651190437086 -0.16084319604133399 0.31278743906869594 0.0
O O 0.6793591824409861 -0.12253155520255847 0.4230523619735807 0.0
O O 0.7095843153354575 0.07748739839429195 0.45795441659956887 0.0
O O 0.8011962491553103 0.21431733842377393 0.40838871780057884 0.0
O O 0.8645034803854104 0.09918500064169228 0.4662425306670433 0.0
O O 0.8205786247178288 0.06207553709098873 0.2547800291946559 0.0
O O 0.8652707886602747 -0.13057662096911118 0.22446720753383761 0.0
O O 0.8229234867916879 -0.4453406695164625 0.3762335416217767 0.0
O O 0.7402263733132578 -0.40377606122815435 0.3994911876573229 0.0
N N 0.6133606082270597 -0.18431438392947969 0.26324786550082346 0.0
N N 0.3997815566158139 0.07455493486462643 0.009051097012120988 0.0
C C 0.7379316532044352 -0.029496393958073814 0.3511062003329164 0.0
H H 0.733392653204435 0.058023606041926225 0.3184048003329164 0.0
C C 0.7954217357091506 -0.0438078836360132 0.40385415996449897 0.0
H H 0.7957627357091506 -0.10087788363601315 0.452552759964499 0.0
C C 0.8148125962098194 -0.13822449790494273 0.33832589851455214 0.0
H H 0.8434835962098194 -0.19099449790494272 0.3668844985145521 0.0
C C 0.7775964427735838 -0.22824229947464694 0.31541888298357557 0.0
H H 0.7806874427735837 -0.261822299474647 0.26166748298357556 0.0
C C 0.7096065336656613 -0.03135122311100681 0.41555329274424324 0.0
C C 0.8188643654401918 0.10202785782631976 0.4243705150706594 0.0
C C 0.8345844963863168 -0.05066061058734204 0.2637404069168116 0.0
C C 0.7819735362178043 -0.3692908312801132 0.3634829350937071 0.0
C C 0.6105010672872737 -0.04784118243402948 0.24566531939466202 0.0
H H 0.6349499672872735 0.01518881756597054 0.26988351939466204 0.0
C C 0.5647818723340639 0.0055072033722829575 0.18873606652298075 0.0
H H 0.5628706723340637 0.10433720337228293 0.1793941665229808 0.0
C C 0.5317506141268908 -0.08266385162460183 0.16085727920830342 0.0
C C 0.5386549029141443 -0.2382503218313031 0.18326091181804013 0.0
H H 0.5154237029141443 -0.304420321831303 0.15864091181804013 0.0
C C 0.5761554956579933 -0.28360234589945793 0.23712161989373456 0.0
H H 0.5788642956579932 -0.38157234589945793 0.24870161989373452 0.0
C C 0.4297387354400443 0.14634594099904297 0.054535204464235675 0.0
H H 0.4193498354400443 0.241575940999043 0.05731330446423567 0.0
C C 0.46730177888788654 0.09948462304479425 0.11595565511964727 0.0
H H 0.4846729788878865 0.1641146230447942 0.15213565511964725 0.0
C C 0.48198980076112463 -0.02941927902817781 0.09739235053950025 0.0
C C 0.45663093590009246 -0.13078457879697647 0.05217488806804313 0.0
H H 0.46667203590009243 -0.22575457879697644 0.04724308806804313 0.0
C C 0.42142493914327045 -0.07313628393741071 0.0009312468528345551 0.0
H H 0.4035660391432705 -0.13530628393741065 -0.03606055314716545 0.0
Zn Zn 0.33005143244569457 -0.30050450559929426 -0.8487584979302565 0.0
Zn Zn 0.3315771073974258 0.09736311438493322 -1.0473424209887165 0.0
O O 0.26727269682883253 -0.14924911347202724 -0.8123400349768664 0.0
O O 0.32141975738986917 -0.12962553335015994 -0.9156402713166839 0.0
O O 0.29486768899725924 0.09631694495981186 -0.9501394979992731 0.0
O O 0.19846462333346968 0.21825171060466306 -0.8974797590929983 0.0
O O 0.1346996404435858 0.07993690144798125 -0.958171835232534 0.0
O O 0.1828357930330984 0.06393277315298602 -0.7511125191716149 0.0
O O 0.14007754154179142 -0.11441896874075125 -0.7204701047233215 0.0
O O 0.18216000474514277 -0.43497457550112045 -0.8754223340507126 0.0
O O 0.25674652688861804 -0.40429067735351226 -0.8992805666618557 0.0
N N 0.3864194999318003 -0.18898177359758397 -0.7700359063167628 0.0
N N 0.5999013220506203 0.06177696860180891 -0.50701729248568 0.0
C C 0.25885278743744894 -0.037659841774711954 -0.8589536303499573 0.0
H H 0.2633917874374489 0.049860158225288075 -0.8262522303499573 0.0
C C 0.20817366572768653 -0.03795383051463454 -0.8968436346596456 0.0
H H 0.20783266572768658 -0.09502383051463448 -0.9455422346596455 0.0
C C 0.17952528746618382 -0.1250555894518273 -0.8346898979326172 0.0
H H 0.1508542874661838 -0.17782558945182728 -0.863248497932617 0.0
C C 0.21888276711809435 -0.24750418221310252 -0.815428744180538 0.0
H H 0.21579176711809442 -0.28108418221310255 -0.7616773441805378 0.0
C C 0.29772663396411553 -0.029015515726665254 -0.9155698626763294 0.0
C C 0.17504360367770785 0.09342138110599925 -0.9291959074885701 0.0
C C 0.16543561903449364 -0.06338382052541856 -0.7717955093838171 0.0
C C 0.22817801552790523 -0.3676738745585657 -0.8611182698597002 0.0
C C 0.39367508271918145 -0.06360387808920219 -0.748525099872908 0.0
H H 0.36922618271918145 -0.000573878089202159 -0.7727432998729081 0.0
C C 0.4305427822673756 -0.008299560673720202 -0.7013642871231992 0.0
H H 0.4324539822673756 0.09053043932627977 -0.6920223871231992 0.0
C C 0.4724095109244128 -0.0871833457898502 -0.6689978325651632 0.0
C C 0.46523612083013544 -0.23416674179756317 -0.6729308394780121 0.0
H H 0.4884673208301354 -0.3003367417975631 -0.648310839478012 0.0
C C 0.42554290502123804 -0.2952623478926151 -0.732833488910693 0.0
H H 0.4228341050212381 -0.39323234789261513 -0.7444134889106929 0.0
C C 0.5748133909380777 0.15093795403742394 -0.5655735060813253 0.0
H H 0.5852022909380776 0.24616795403742395 -0.5683516060813254 0.0
C C 0.53209975619932 0.1008570085165239 -0.6033894976752264 0.0
H H 0.5147285561993201 0.1654870085165239 -0.6395694976752265 0.0
C C 0.5146914913844577 -0.04501366425409321 -0.6038831863398993 0.0
C C 0.5389553838994102 -0.12655860286429696 -0.5417389333380936 0.0
H H 0.5289142838994102 -0.22152860286429693 -0.5368071333380938 0.0
C C 0.5872757481733534 -0.0733195762667883 -0.5054006497255142 0.0
H H 0.6051346481733534 -0.13548957626678826 -0.4684088497255143 0.0
