_cell_length_a 13.649
_cell_length_b 13.649
_cell_length_c 8.092
_cell_angle_alpha 90.0
_cell_angle_beta 90.0
_cell_angle_gamma 90.0
_symmetry_space_group_name_H-M         'P 1'
_symmetry_Int_Tables_number            1
loop_
_symmetry_equiv_pos_as_xyz
   'x, y, z'
                         
loop_
_atom_site_label
_atom_site_type_symbol
_atom_site_fract_x 
_atom_site_fract_y
_atom_site_fract_z
_atom_site_charge
C7 C7 0.021158338070713448 0.29343805149165886 0.3270052011335426 0.0
C9 C9 -0.003228987293332105 0.2049444606135046 0.31864010875680965 0.0
C7 C7 0.48465018161068035 0.7875120251698265 0.8550775276183946 0.0
C9 C9 0.5035557324221913 0.6908619748794522 0.8524322022300655 0.0
C7 C7 -0.004968479561328648 0.7033132484723849 0.3440766955203301 0.0
C9 C9 0.008067497540817236 0.7914773898350331 0.367328033149475 0.0
C7 C7 0.48483741527257385 0.19515346482905563 0.8439996154333503 0.0
C9 C9 0.516432553149325 0.3348945270025227 0.8253194030591928 0.0
C7 C7 0.6893630722565967 -0.00937929884556898 0.3873327165122259 0.0
C9 C9 0.8045672043732631 -0.0040337839086622175 0.38390885508833283 0.0
C7 C7 0.17936330300027734 0.5122903264822216 0.853297682308879 0.0
C9 C9 0.30917200830746105 0.5198124005377895 0.8671960957221598 0.0
C7 C7 0.28665772281464313 0.007381800043375908 0.3920693058636529 0.0
C9 C9 0.19239734817185433 -0.0044632262946976125 0.3626039850032313 0.0
C7 C7 0.7934123904263056 0.4941025735103466 0.8327016186240875 0.0
C9 C9 0.7090301536330968 0.4905962372025175 0.8788528649787499 0.0
C7 C7 -0.01057032285701263 0.28460300929174853 0.653032222769895 0.0
C9 C9 -0.01184475809880904 0.21583380900539328 0.6435851346375141 0.0
C7 C7 0.505524365462268 0.8040910445117284 0.1320928835323308 0.0
C9 C9 0.49596106987160804 0.7118291257127444 0.15050160274738653 0.0
C7 C7 -0.0013939227413224658 0.6993312646265106 0.6609656733837301 0.0
C9 C9 -0.004840659190098534 0.7880181196303474 0.7084062444611332 0.0
C7 C7 0.5038261385639982 0.1976503753767922 0.13782037339140765 0.0
C9 C9 0.5018539263145115 0.313508698731414 0.12437502861295519 0.0
C7 C7 0.30298164845083003 -0.009383559845245734 0.6753940364420316 0.0
C9 C9 0.2031006264998478 0.0015876383249854773 0.676389464015903 0.0
C7 C7 0.8003491428914611 0.49243886759911465 0.1778433673463864 0.0
C9 C9 0.6889125797945354 0.5014952188390294 0.149746319091164 0.0
C7 C7 0.6755520122561129 0.014777487640817964 0.6183909358784964 0.0
C9 C9 0.8258195479820342 -0.008382290307560108 0.6724784622152699 0.0
C7 C7 0.19961711020605957 0.5090912620592157 0.14452031747038954 0.0
C9 C9 0.3176692912755391 0.5148641940621879 0.1098231491579285 0.0
C5 C5 0.011298669949695096 0.45821699237529556 0.49440485793354716 0.0
C8 C8 0.0004991578579715011 0.33332415670126436 0.48548474440728734 0.0
C5 C5 0.5050912851105692 0.9522299659309349 -0.028334471982242447 0.0
C5 C5 0.4951123378884698 0.8650097163344038 -0.015164090210329191 0.0
C5 C5 0.0019044336884128372 0.5829649094205672 0.5307533800568739 0.0
C8 C8 -0.005991370939895276 0.6663040553657053 0.45624440329246646 0.0
C5 C5 0.48839460575075244 0.04404270804875288 -0.03043557975833601 0.0
C5 C5 0.5105674763213126 0.14935081429849942 0.0031258327593036692 0.0
C5 C5 0.5473667359681844 -0.005784557063115423 0.4674965454449342 0.0
C8 C8 0.64461758201517 0.0300766388807917 0.5343355910825067 0.0
C5 C5 0.031181463798196737 0.4940547020883112 -0.007072586380516785 0.0
C8 C8 0.14168054347257994 0.5109942508066291 0.0195877743374231 0.0
C5 C5 0.4530800187943114 0.0010895544789426201 0.48902923752304334 0.0
C8 C8 0.3365342515567932 -0.014410824575647256 0.4849105696072493 0.0
C5 C5 0.9539617326344734 0.505726615896264 -0.0009955897061622694 0.0
C8 C8 0.861330141356371 0.4758884310986938 -0.023936866751458813 0.0
H H 0.021158338070713444 0.33120805149165883 0.20852520113354256 0.0
H H -0.0032289872933321047 0.16187446061350458 0.20541010875680962 0.0
H H 0.4846501816106804 0.8252820251698266 0.7365975276183945 0.0
H H 0.5035557324221913 0.6477919748794522 0.7392022022300655 0.0
H H -0.004968479561328648 0.6655432484723848 0.22559669552033007 0.0
H H 0.008067497540817238 0.8345473898350333 0.25409803314947493 0.0
H H 0.4848374152725739 0.15738346482905563 0.7255196154333502 0.0
H H 0.516432553149325 0.3779645270025227 0.7120894030591928 0.0
H H 0.6515930722565966 -0.009379298845568982 0.26885271651222586 0.0
H H 0.8476372043732632 -0.0040337839086622175 0.27067885508833284 0.0
H H 0.1415933030002773 0.5122903264822216 0.734817682308879 0.0
H H 0.35224200830746105 0.5198124005377895 0.7539660957221598 0.0
H H 0.32442772281464305 0.007381800043375907 0.2735893058636528 0.0
H H 0.1493273481718543 -0.0044632262946976125 0.24937398500323127 0.0
H H 0.8311823904263056 0.49410257351034664 0.7142216186240875 0.0
H H 0.6659601536330968 0.4905962372025175 0.7656228649787498 0.0
H H -0.01057032285701263 0.3223730092917485 0.7715122227698951 0.0
H H -0.011844758098809038 0.1727638090053933 0.7568151346375142 0.0
H H 0.505524365462268 0.8418610445117284 0.25057288353233076 0.0
H H 0.49596106987160804 0.6687591257127443 0.26373160274738655 0.0
H H -0.0013939227413224658 0.6615612646265105 0.7794456733837302 0.0
H H -0.004840659190098533 0.8310881196303475 0.8216362444611333 0.0
H H 0.5038261385639982 0.1598803753767922 0.25630037339140765 0.0
H H 0.5018539263145115 0.356578698731414 0.2376050286129552 0.0
H H 0.34075164845082995 -0.009383559845245736 0.7938740364420317 0.0
H H 0.1600306264998478 0.001587638324985477 0.7896194640159031 0.0
H H 0.838119142891461 0.49243886759911465 0.29632336734638637 0.0
H H 0.6458425797945353 0.5014952188390294 0.26297631909116403 0.0
H H 0.6377820122561129 0.014777487640817965 0.7368709358784964 0.0
H H 0.8688895479820343 -0.008382290307560106 0.7857084622152699 0.0
H H 0.16184711020605957 0.5090912620592157 0.2630003174703895 0.0
H H 0.36073929127553905 0.5148641940621879 0.22305314915792854 0.0
Cu Cu 0.005475261390230976 0.03471379231210583 0.4991455457073823 0.0
Cu Cu 0.4741650738704213 0.48148904237053514 -0.01724360142008117 0.0
Si Si 0.0025608085407930947 0.006007235871474849 -0.008644645650740634 0.0
Si Si 0.4743543543189917 0.4939179429722543 0.5059564970602192 0.0
N N -0.02751409741869788 0.14306718202350785 0.5252825244194101 0.0
N N 0.505476579582993 0.6593548166213743 -0.00011324323101080756 0.0
N N 0.02027535500416301 0.8798766514415503 0.5074992844008327 0.0
N N 0.48754213177787853 0.3613666515612782 -0.0027098829850548114 0.0
N N 0.8359074629685044 0.002414667560376413 0.5013909507227858 0.0
N N 0.3588029277561189 0.5130604538975835 -0.037084361019361196 0.0
N N 0.14820042679909454 -0.012991247501676012 0.48769658908778357 0.0
N N 0.6566251043247934 0.49897935796961806 -0.00894245724636202 0.0
F3 F3 -0.016001874259863935 0.004966590639383508 0.7869665994816031 0.0
F3 F3 0.5120012521811848 0.5088509864642174 0.3108523796448635 0.0
F3 F3 -0.02750787280387966 0.019021847890216007 0.19994889599574336 0.0
F3 F3 0.5043982018683201 0.4871445697734183 0.7078213458639202 0.0
F F 0.6039267554136813 0.5947013899241316 0.5318686153395331 0.0
F F 0.5848284178581495 0.3907810265009406 0.47985115591497673 0.0
F F 0.4219165406523931 0.5523181851369166 0.5297670716952245 0.0
F F 0.4175599635586256 0.4068653225804657 0.5380765269065331 0.0
F F 0.08265784170473064 0.09395836749543235 0.054265066651862634 0.0
F F 0.8913199577963887 0.9329507351499104 0.028772953534540287 0.0
F F 0.9012984970964063 0.09775185201279099 -0.012199474063958307 0.0
F F 0.06037403083913279 0.9617472012718391 -0.011184616978091328 0.0
