_cell_length_a 13.649
_cell_length_b 13.649
_cell_length_c 8.092
_cell_angle_alpha 90.0
_cell_angle_beta 90.0
_cell_angle_gamma 90.0
_symmetry_space_group_name_H-M         'P 1'
_symmetry_Int_Tables_number            1
loop_
_symmetry_equiv_pos_as_xyz
   'x, y, z'
                         
loop_
_atom_site_label
_atom_site_type_symbol
_atom_site_fract_x 
_atom_site_fract_y
_atom_site_fract_z
_atom_site_charge
C7 C7 0.0007201263507532502 0.30097173083883255 0.34807785804845615 0.0
C9 C9 -0.000478180196202426 0.18527221710903885 0.36585562427827883 0.0
C7 C7 0.46736612437319225 0.7732021203123777 0.8314858807463125 0.0
C9 C9 0.5094517640640958 0.6973540969444182 0.8582713201940919 0.0
C7 C7 0.004596720721252705 0.705063226135549 0.3532717032639992 0.0
C9 C9 -0.01268219953086581 0.8012363726964314 0.39069813888221333 0.0
C7 C7 0.5053371549332432 0.1864532699688883 0.8626245599840849 0.0
C9 C9 0.5087556704000599 0.29452723516996054 0.8245101125134755 0.0
C7 C7 0.6896235575008649 0.01714823409043594 0.3234577565213967 0.0
C9 C9 0.7890821315958579 0.005271750936543643 0.35379690455012675 0.0
C7 C7 0.19202258467197603 0.49883442615386114 0.8655041393272679 0.0
C9 C9 0.3265763872325343 0.5117072877870106 0.8933058663692269 0.0
C7 C7 0.3280325097792993 -0.028582434844660595 0.3751749718523426 0.0
C9 C9 0.20690845671770125 0.020327812562923195 0.35419035752830735 0.0
C7 C7 0.814184402349129 0.5019832657423476 0.8729282486340053 0.0
C9 C9 0.7089907317622154 0.5241213818914385 0.8369161714159978 0.0
C7 C7 -0.01520746365732355 0.30869899454084826 0.6572382728225656 0.0
C9 C9 -0.020054440767724262 0.18433878076051527 0.6530552158285475 0.0
C7 C7 0.4898351304330749 0.8000270565042503 0.14695787077592595 0.0
C9 C9 0.49252650878440113 0.7225251239450572 0.16134166683915221 0.0
C7 C7 0.005595508950846694 0.6837420570426435 0.6341697786849521 0.0
C9 C9 0.003568042375134953 0.808512134517195 0.6389821407058413 0.0
C7 C7 0.5178770782550458 0.23490639271960503 0.20343214974224907 0.0
C9 C9 0.5144413234961172 0.30338793059619834 0.12767231564042886 0.0
C7 C7 0.3165273046105947 -0.008845660343635313 0.6456420683891148 0.0
C9 C9 0.19810745560972307 0.016098702334964965 0.629690185099436 0.0
C7 C7 0.8075641068093724 0.5063001566704585 0.13618722256590604 0.0
C9 C9 0.698500016755068 0.5154156695635571 0.14215420808379786 0.0
C7 C7 0.7241733263094318 -0.013412259040056215 0.6352367988599978 0.0
C9 C9 0.7877830462919415 0.0033269629436998736 0.6637075035361151 0.0
C7 C7 0.19186485693111113 0.5249122413249346 0.1425267999448384 0.0
C9 C9 0.2947679844026129 0.5078262126760129 0.14009928820493858 0.0
C5 C5 0.006046232406343536 0.4665590703256586 0.5082966756066667 0.0
C8 C8 -0.007715772374858499 0.3584050253552877 0.5013353568233938 0.0
C5 C5 0.5012214866340232 0.9454895558289401 0.00790104635154371 0.0
C5 C5 0.506413086059256 0.8358541845255211 -0.04530101310569809 0.0
C5 C5 0.02451967263893474 0.5459736700924018 0.508158279889437 0.0
C8 C8 -0.023143020429129548 0.6499416616512342 0.5032429931588216 0.0
C5 C5 0.5174196186014957 0.016092502198511438 -0.011859946660578734 0.0
C5 C5 0.4809866457703264 0.18614913247090778 -0.009988213662748 0.0
C5 C5 0.5427668800601481 -0.006501489977958107 0.4757878467647907 0.0
C8 C8 0.6331720656323281 -0.011259301169774623 0.4917620264420445 0.0
C5 C5 0.0326151827803747 0.501258043335781 0.001411943711464463 0.0
C8 C8 0.18763306163363147 0.535656565024951 0.010391080477635544 0.0
C5 C5 0.4459408418203881 -0.015519208030018421 0.4605996793994286 0.0
C8 C8 0.3507675633863673 0.0006997075555780743 0.5182615015418165 0.0
C5 C5 0.9280994572531714 0.4991904785018678 0.02868584739710104 0.0
C8 C8 0.8547887951068095 0.5173604365562775 -0.060868955696436564 0.0
H H 0.0007201263507532503 0.3387417308388325 0.22959785804845612 0.0
H H -0.00047818019620242603 0.14220221710903888 0.2526256242782789 0.0
H H 0.4673661243731923 0.8109721203123778 0.7130058807463123 0.0
H H 0.5094517640640958 0.6542840969444181 0.7450413201940919 0.0
H H 0.004596720721252705 0.6672932261355489 0.23479170326399912 0.0
H H -0.01268219953086581 0.8443063726964315 0.27746813888221333 0.0
H H 0.5053371549332432 0.1486832699688883 0.7441445599840848 0.0
H H 0.5087556704000599 0.33759723516996054 0.7112801125134754 0.0
H H 0.6518535575008648 0.01714823409043594 0.2049777565213967 0.0
H H 0.8321521315958581 0.005271750936543643 0.2405669045501267 0.0
H H 0.15425258467197603 0.4988344261538612 0.7470241393272679 0.0
H H 0.3696463872325343 0.5117072877870106 0.7800758663692269 0.0
H H 0.36580250977929923 -0.028582434844660595 0.2566949718523426 0.0
H H 0.16383845671770125 0.020327812562923195 0.24096035752830738 0.0
H H 0.8519544023491291 0.5019832657423476 0.7544482486340053 0.0
H H 0.6659207317622153 0.5241213818914385 0.7236861714159978 0.0
H H -0.01520746365732355 0.3464689945408482 0.7757182728225657 0.0
H H -0.020054440767724262 0.14126878076051524 0.7662852158285477 0.0
H H 0.4898351304330749 0.8377970565042504 0.26543787077592595 0.0
H H 0.49252650878440113 0.679455123945057 0.27457166683915224 0.0
H H 0.005595508950846693 0.6459720570426435 0.7526497786849521 0.0
H H 0.003568042375134953 0.851582134517195 0.7522121407058413 0.0
H H 0.5178770782550458 0.19713639271960506 0.321912149742249 0.0
H H 0.5144413234961172 0.34645793059619834 0.24090231564042888 0.0
H H 0.3542973046105947 -0.008845660343635313 0.7641220683891149 0.0
H H 0.15503745560972307 0.016098702334964965 0.742920185099436 0.0
H H 0.8453341068093725 0.5063001566704585 0.254667222565906 0.0
H H 0.655430016755068 0.5154156695635571 0.25538420808379786 0.0
H H 0.6864033263094317 -0.013412259040056216 0.7537167988599979 0.0
H H 0.8308530462919417 0.003326962943699874 0.7769375035361151 0.0
H H 0.15409485693111113 0.5249122413249346 0.2610067999448384 0.0
H H 0.3378379844026129 0.5078262126760129 0.25332928820493855 0.0
Cu Cu -0.01669543283381432 -0.0032943406565254458 0.5224792224057287 0.0
Cu Cu 0.4881147833004263 0.5072210392963724 0.0009184903091824095 0.0
Si Si 0.008816695924071435 -0.01663374102679648 -0.04689440391197453 0.0
Si Si 0.5133404158836078 0.48620173276048245 0.4850176140461146 0.0
N N -0.0026926572113946637 0.1863362646007108 0.5054635604199458 0.0
N N 0.49089596581214473 0.6500405619340153 -0.01027562103355332 0.0
N N 0.027348437725012838 0.8561542517170255 0.5338680170056251 0.0
N N 0.5049694902278064 0.34504187190711055 0.026553179858683898 0.0
N N 0.8608073300242788 0.0079646451126667 0.5416068345847916 0.0
N N 0.3555697326690452 0.5037368960509598 0.015096061760400428 0.0
N N 0.14507025783485522 -0.018202371719919813 0.5073546805712607 0.0
N N 0.6383748389598887 0.4993112662644513 0.017392237039139134 0.0
F3 F3 0.014757940973632191 0.035981469299747194 0.7694105239636819 0.0
F3 F3 0.48122668583197253 0.4991823560572484 0.22410737393646013 0.0
F3 F3 0.025397028465166036 -0.011125622877838595 0.15546302910624535 0.0
F3 F3 0.49000552266258407 0.5168457688272947 0.7192643721255736 0.0
F F 0.6010073976807448 0.5973089535384426 0.5197666076104135 0.0
F F 0.5764415917492796 0.44667069069036736 0.5061804236826501 0.0
F F 0.40893387812799364 0.5761773546317532 0.4709670383355085 0.0
F F 0.4120140041796413 0.40827081604553767 0.5270258088374558 0.0
F F 0.09099625838021562 0.10662841882585657 -0.02765251281070154 0.0
F F 0.8949927829087004 0.8976939311398053 -0.013427541947847045 0.0
F F 0.9190937686075629 0.07690418065375025 -0.010612400656579974 0.0
F F 0.08255002646457871 0.906867777200417 -0.0331846303003179 0.0
