_cell_length_a 13.649
_cell_length_b 13.649
_cell_length_c 8.092
_cell_angle_alpha 90.0
_cell_angle_beta 90.0
_cell_angle_gamma 90.0
_symmetry_space_group_name_H-M         'P 1'
_symmetry_Int_Tables_number            1
loop_
_symmetry_equiv_pos_as_xyz
   'x, y, z'
                         
loop_
_atom_site_label
_atom_site_type_symbol
_atom_site_fract_x 
_atom_site_fract_y
_atom_site_fract_z
_atom_site_charge
C7 C7 -0.0015592675671350646 0.29912547865668737 0.37099979293706575 0.0
C9 C9 -0.010886681375941213 0.21183371173778334 0.3730323658434243 0.0
C7 C7 0.49118670123513913 0.783190798160545 0.8516378714859486 0.0
C9 C9 0.5255980662761849 0.6812743792486698 0.8717473731095969 0.0
C7 C7 -0.03024418569072663 0.6977736255077055 0.34074847194024566 0.0
C9 C9 0.02595077071524539 0.8048595046301077 0.3652035786366459 0.0
C7 C7 0.5067630424794929 0.18351404292951853 0.8631721096988162 0.0
C9 C9 0.4946609092298457 0.30466818299093024 0.8482075747078555 0.0
C7 C7 0.7015583638743191 0.016755841533510465 0.33483686063832424 0.0
C9 C9 0.7840758638511294 -0.004480553249145981 0.33619885385949144 0.0
C7 C7 0.16620761570729786 0.48650795616549475 0.8881778898644982 0.0
C9 C9 0.3075005426319208 0.5001290794064888 0.8669762881739662 0.0
C7 C7 0.2794571021755721 -0.02213572244867273 0.30213176094869115 0.0
C9 C9 0.2083848316954914 0.0156818518457977 0.367188540606242 0.0
C7 C7 0.8468679047465343 0.503447574880276 0.8185294588261908 0.0
C9 C9 0.6890084368962577 0.49595563046836866 0.8057140214888189 0.0
C7 C7 0.019335750040476246 0.28836797660056507 0.6531743557170238 0.0
C9 C9 -0.0022822753884250532 0.20918719325404247 0.6238739119112885 0.0
C7 C7 0.477561843682761 0.8034568578424935 0.11568462637256112 0.0
C9 C9 0.5003948760942519 0.6796139511490349 0.17158036298692106 0.0
C7 C7 0.02093022633685254 0.6990854594354229 0.6272536152580995 0.0
C9 C9 0.009473735863685138 0.8225395236846 0.6351035335253947 0.0
C7 C7 0.5249822192985918 0.18093571036092196 0.13190148846575211 0.0
C9 C9 0.4945017256611863 0.2989949334010277 0.14892886405764436 0.0
C7 C7 0.30172462655543575 0.024393309882513686 0.656285017608508 0.0
C9 C9 0.20553930597596445 0.0027918694979155944 0.6370060600723537 0.0
C7 C7 0.7974327903102119 0.5051137306385373 0.1619481142101088 0.0
C9 C9 0.6854095654320151 0.4862647767327626 0.10778290931618938 0.0
C7 C7 0.7076737747932176 -0.010693385656158572 0.6912097818015097 0.0
C9 C9 0.8449249648273012 -0.004554189413516189 0.6430352099304932 0.0
C7 C7 0.20774636914731617 0.49454354357857844 0.13257104130489164 0.0
C9 C9 0.2986845687266474 0.4828931404690672 0.0914220240008098 0.0
C5 C5 -0.01670811836498433 0.4508653973199191 0.50545266510901 0.0
C8 C8 -0.0098843161370107 0.3539662916030135 0.49287889442014055 0.0
C5 C5 0.4950469953176381 0.9760779073045692 -0.0005881571418271149 0.0
C5 C5 0.5029533081568359 0.8374925044265752 0.021889373742190434 0.0
C5 C5 -0.006735538345292865 0.5507318602934242 0.49151654312324167 0.0
C8 C8 -0.010701444440397136 0.64277601331441 0.48844825809044623 0.0
C5 C5 0.4897128072536893 0.03543702417728276 -0.018870901599683024 0.0
C5 C5 0.5048283545804617 0.16947416460208162 -0.015805008102061313 0.0
C5 C5 0.53092639233903 -0.019583649782345575 0.5059258917150181 0.0
C8 C8 0.658520652928016 0.005169240275806194 0.45918690992019745 0.0
C5 C5 0.06108260097495037 0.5079879749083354 -0.013925840313098996 0.0
C8 C8 0.14039521926426238 0.5174666016203028 0.033168743397075505 0.0
C5 C5 0.4877838615520105 0.03456529689923072 0.5125118599919068 0.0
C8 C8 0.3409591090556513 -0.01878625392078549 0.49731443952878085 0.0
C5 C5 0.9535191074056241 0.5049164108711516 -0.015223454270276934 0.0
C8 C8 0.8702348574834837 0.49677872527419986 -0.008547837142837618 0.0
H H -0.0015592675671350646 0.33689547865668734 0.2525197929370658 0.0
H H -0.010886681375941211 0.16876371173778335 0.25980236584342437 0.0
H H 0.4911867012351392 0.8209607981605451 0.7331578714859486 0.0
H H 0.5255980662761849 0.6382043792486698 0.7585173731095969 0.0
H H -0.030244185690726632 0.6600036255077054 0.2222684719402456 0.0
H H 0.02595077071524539 0.8479295046301077 0.2519735786366459 0.0
H H 0.5067630424794929 0.14574404292951854 0.7446921096988162 0.0
H H 0.49466090922984574 0.34773818299093023 0.7349775747078554 0.0
H H 0.663788363874319 0.016755841533510465 0.2163568606383242 0.0
H H 0.8271458638511295 -0.004480553249145981 0.22296885385949142 0.0
H H 0.12843761570729786 0.48650795616549475 0.7696978898644982 0.0
H H 0.3505705426319208 0.5001290794064888 0.7537462881739662 0.0
H H 0.3172271021755721 -0.02213572244867273 0.18365176094869115 0.0
H H 0.1653148316954914 0.015681851845797696 0.25395854060624207 0.0
H H 0.8846379047465344 0.503447574880276 0.7000494588261907 0.0
H H 0.6459384368962575 0.4959556304683687 0.6924840214888187 0.0
H H 0.01933575004047625 0.326137976600565 0.7716543557170239 0.0
H H -0.0022822753884250532 0.16611719325404248 0.7371039119112885 0.0
H H 0.477561843682761 0.8412268578424936 0.2341646263725611 0.0
H H 0.5003948760942519 0.6365439511490347 0.2848103629869211 0.0
H H 0.02093022633685254 0.6613154594354228 0.7457336152580996 0.0
H H 0.009473735863685136 0.8656095236846001 0.7483335335253948 0.0
H H 0.5249822192985918 0.14316571036092196 0.2503814884657521 0.0
H H 0.4945017256611863 0.34206493340102767 0.2621588640576443 0.0
H H 0.33949462655543566 0.024393309882513686 0.774765017608508 0.0
H H 0.16246930597596446 0.0027918694979155944 0.7502360600723538 0.0
H H 0.8352027903102119 0.5051137306385373 0.28042811421010877 0.0
H H 0.642339565432015 0.4862647767327626 0.2210129093161894 0.0
H H 0.6699037747932175 -0.010693385656158573 0.8096897818015097 0.0
H H 0.8879949648273013 -0.004554189413516189 0.7562652099304933 0.0
H H 0.16997636914731618 0.49454354357857844 0.2510510413048916 0.0
H H 0.3417545687266474 0.4828931404690672 0.20465202400080984 0.0
Cu Cu 0.0047796924008020065 0.017075173652868484 0.5479528166046364 0.0
Cu Cu 0.5379162043150877 0.5450678503939116 0.017195751193056625 0.0
Si Si 0.0039601106239370056 -0.018971993491020956 -0.017935309850471485 0.0
Si Si 0.5038119020211396 0.5002598285143018 0.5392275876647691 0.0
N N -0.01691634406252872 0.15231771730211066 0.47086681678587816 0.0
N N 0.5063118274469379 0.6579907995269428 0.013160549707050948 0.0
N N 0.00272527622395454 0.8514877422081706 0.46980940098555796 0.0
N N 0.4885384706759329 0.35089943419130065 -0.013160789509763994 0.0
N N 0.8839691390784881 0.0038068489980540776 0.47362510384240847 0.0
N N 0.34613504295372366 0.4960281206721624 0.0031121449045702953 0.0
N N 0.1770844986443381 -0.0021076383077860816 0.4993849256466305 0.0
N N 0.6461086645694497 0.5029387781219873 -0.011397966967255124 0.0
F3 F3 -0.004568062139470689 0.0010412065239891616 0.8081616219797794 0.0
F3 F3 0.5011706646812006 0.4938064427626863 0.3061762281332306 0.0
F3 F3 0.015135578534229881 -0.0022267262995954757 0.22794845915675538 0.0
F3 F3 0.4901087083198255 0.5094573702259209 0.7228392597494772 0.0
F F 0.586842194543488 0.593357277931693 0.5057288859801605 0.0
F F 0.6104861295637656 0.4056910657442194 0.47314580547550505 0.0
F F 0.3869112090248745 0.6104453930410226 0.48127872517351306 0.0
F F 0.40093630492149357 0.41191654609381684 0.4960833422050938 0.0
F F 0.09729342871040267 0.0848473289824254 0.00470517121361765 0.0
F F 0.9289391514388226 0.9140690961815963 0.014170941205529922 0.0
F F 0.9019954040744416 0.10920616965331485 0.016072907521343247 0.0
F F 0.10068886535704837 0.8994618131652372 -0.011586524946965574 0.0
