_cell_length_a 13.649
_cell_length_b 13.649
_cell_length_c 8.092
_cell_angle_alpha 90.0
_cell_angle_beta 90.0
_cell_angle_gamma 90.0
_symmetry_space_group_name_H-M         'P 1'
_symmetry_Int_Tables_number            1
loop_
_symmetry_equiv_pos_as_xyz
   'x, y, z'
                         
loop_
_atom_site_label
_atom_site_type_symbol
_atom_site_fract_x 
_atom_site_fract_y
_atom_site_fract_z
_atom_site_charge
C7 C7 -0.006322081117862028 0.27843931050750637 0.332014888559853 0.0
C9 C9 0.014163921895908822 0.1830934897345756 0.3452529527867229 0.0
C7 C7 0.4865442814478281 0.802191027687336 0.8587259726880729 0.0
C9 C9 0.508200770544932 0.7114754021025459 0.8362176543876733 0.0
C7 C7 0.0023462524466953466 0.7102686295561724 0.32160752061019515 0.0
C9 C9 -0.016786871407880505 0.8321016596467724 0.30681998390895865 0.0
C7 C7 0.5078424215459889 0.22046416811806382 0.8604505143924372 0.0
C9 C9 0.48106864906954194 0.3062891034855607 0.8319998083860289 0.0
C7 C7 0.7005436539110621 -0.010092249446835923 0.34993723299532264 0.0
C9 C9 0.8004010125040476 0.0014790351861163013 0.3964254189572277 0.0
C7 C7 0.2153292303948154 0.5143321945695486 0.8479275190650211 0.0
C9 C9 0.33728349956560927 0.5030878602162427 0.8986305418526039 0.0
C7 C7 0.2914070544163373 -0.003939356091477288 0.3545509702140756 0.0
C9 C9 0.2103455291348646 -0.013828233202835513 0.37492160716861656 0.0
C7 C7 0.8132347120551606 0.5121290334215217 0.8240676474472465 0.0
C9 C9 0.6804071996734194 0.5027116753003991 0.8904459598407779 0.0
C7 C7 0.00541277304634208 0.2790493091105721 0.6238947131871234 0.0
C9 C9 -0.016778582077456205 0.19031392427203922 0.643286315892003 0.0
C7 C7 0.48690884678991475 0.8144755236470486 0.18772661546838287 0.0
C9 C9 0.5030999782659499 0.7192674933285341 0.15340969841451105 0.0
C7 C7 -0.009282388459895635 0.6774890760124599 0.6519072631402189 0.0
C9 C9 0.006392783801945351 0.8164567053461501 0.6984634045701105 0.0
C7 C7 0.5116785357643591 0.20134870454486636 0.1450723189286851 0.0
C9 C9 0.4876669914659655 0.28535789791605937 0.1155340830598345 0.0
C7 C7 0.3055701261347477 -0.00017237809960263386 0.6499844959587946 0.0
C9 C9 0.19905763761426234 0.017052374475762973 0.6112987443852934 0.0
C7 C7 0.8097015480676255 0.5068888185822001 0.14452419274019118 0.0
C9 C9 0.7152283357823547 0.5008426859917345 0.1270374050802614 0.0
C7 C7 0.6779305649658836 -0.009407367886589638 0.6549795654837258 0.0
C9 C9 0.8103478464205991 -0.022689600629067032 0.655145044381889 0.0
C7 C7 0.21098173691871497 0.5171128807584541 0.14676694200576904 0.0
C9 C9 0.28620428024996414 0.5014386984041098 0.13837198188159647 0.0
C5 C5 0.001221799981529529 0.4275822128972854 0.5090041989892584 0.0
C8 C8 0.007562114442225398 0.3380168162955633 0.5453434500403331 0.0
C5 C5 0.47876436790766147 0.9448657455435167 -0.01026292404374585 0.0
C5 C5 0.506599857553049 0.8811013800515226 0.007275660773125557 0.0
C5 C5 0.01593587930696792 0.5521891679805176 0.4980120590432534 0.0
C8 C8 -0.01282891470611564 0.6447300771510717 0.5263348142819573 0.0
C5 C5 0.5104404557941099 0.019951257137876256 -0.025444942733404547 0.0
C5 C5 0.5043767364559018 0.17178809418345412 -0.04088791338042635 0.0
C5 C5 0.5832925746239273 -0.015419845257261778 0.4837209441058773 0.0
C8 C8 0.6113598514479093 0.004542367084975325 0.46027827255042886 0.0
C5 C5 0.019073045537166097 0.4840131805785187 0.022502636037501002 0.0
C8 C8 0.16111945352859544 0.5012091015275847 0.012810497507788482 0.0
C5 C5 0.4514972073461338 0.0176050060051162 0.5365043115634011 0.0
C8 C8 0.3650583297630093 0.0008349040679390034 0.49574960737156165 0.0
C5 C5 0.9637618747021586 0.509876331591924 0.0034280841196727497 0.0
C8 C8 0.8670883922796796 0.5066556553040114 -0.025886063496726484 0.0
H H -0.006322081117862027 0.3162093105075064 0.21353488855985295 0.0
H H 0.014163921895908822 0.14002348973457562 0.2320229527867229 0.0
H H 0.48654428144782813 0.839961027687336 0.7402459726880729 0.0
H H 0.508200770544932 0.6684054021025457 0.7229876543876732 0.0
H H 0.0023462524466953466 0.6724986295561723 0.20312752061019512 0.0
H H -0.016786871407880502 0.8751716596467726 0.19358998390895868 0.0
H H 0.5078424215459889 0.18269416811806383 0.7419705143924371 0.0
H H 0.481068649069542 0.3493591034855607 0.7187698083860289 0.0
H H 0.662773653911062 -0.010092249446835925 0.23145723299532261 0.0
H H 0.8434710125040478 0.0014790351861163013 0.2831954189572277 0.0
H H 0.17755923039481544 0.5143321945695486 0.729447519065021 0.0
H H 0.3803534995656092 0.5030878602162427 0.7854005418526038 0.0
H H 0.32917705441633727 -0.003939356091477288 0.23607097021407555 0.0
H H 0.1672755291348646 -0.013828233202835511 0.2616916071686166 0.0
H H 0.8510047120551607 0.5121290334215217 0.7055876474472464 0.0
H H 0.6373371996734194 0.5027116753003991 0.7772159598407778 0.0
H H 0.005412773046342081 0.3168193091105721 0.7423747131871234 0.0
H H -0.01677858207745621 0.14724392427203922 0.7565163158920031 0.0
H H 0.48690884678991475 0.8522455236470486 0.3062066154683828 0.0
H H 0.5030999782659499 0.676197493328534 0.266639698414511 0.0
H H -0.009282388459895635 0.6397190760124598 0.770387263140219 0.0
H H 0.006392783801945351 0.8595267053461502 0.8116934045701105 0.0
H H 0.5116785357643591 0.16357870454486637 0.2635523189286851 0.0
H H 0.4876669914659655 0.32842789791605936 0.22876408305983453 0.0
H H 0.3433401261347476 -0.00017237809960263383 0.7684644959587947 0.0
H H 0.15598763761426235 0.01705237447576297 0.7245287443852935 0.0
H H 0.8474715480676255 0.5068888185822001 0.26300419274019116 0.0
H H 0.6721583357823546 0.5008426859917345 0.24026740508026145 0.0
H H 0.6401605649658835 -0.009407367886589638 0.773459565483726 0.0
H H 0.8534178464205991 -0.022689600629067032 0.7683750443818891 0.0
H H 0.17321173691871497 0.5171128807584541 0.26524694200576904 0.0
H H 0.32927428024996414 0.5014386984041098 0.25160198188159655 0.0
Cu Cu -0.016076638573898065 -0.006594161586972043 0.4275188827516011 0.0
Cu Cu 0.5139339659672432 0.5079917907511591 0.029434771370246852 0.0
Si Si 0.0017524113743458214 -0.003961613476629711 0.015216409524896736 0.0
Si Si 0.524875343259508 0.4996437344070566 0.4866996963057867 0.0
N N -0.005247530711509773 0.17392142925334406 0.5230739978413695 0.0
N N 0.48063979806753854 0.6587900279817346 -0.06876304507245001 0.0
N N 0.008064323834156199 0.8667649086103036 0.45907454787951574 0.0
N N 0.4870887349968572 0.3651725255591213 -0.044044805485480065 0.0
N N 0.8545259369346533 -0.006231825084905408 0.47740574515430323 0.0
N N 0.34000298473570684 0.5014072617546651 -0.026719275616656383 0.0
N N 0.16318942662325586 -0.021855122477732428 0.501999174302406 0.0
N N 0.6647238280772478 0.49572952648956325 0.009628854844125874 0.0
F3 F3 -0.016697886576636605 0.02772837875458886 0.7839322735068479 0.0
F3 F3 0.5117049649882709 0.49695386060026614 0.2761143778617719 0.0
F3 F3 -0.01925245398837951 0.002910207917182851 0.2159657549196135 0.0
F3 F3 0.5299132713181498 0.5134761708338761 0.6980507723109423 0.0
F F 0.604755100984833 0.5969742883985407 0.5206819881058271 0.0
F F 0.5803047585608363 0.3985741178320296 0.5121369659886338 0.0
F F 0.39668147945395854 0.6054372858616013 0.5307442579284409 0.0
F F 0.4060344190228084 0.4240838472343657 0.4895131124195127 0.0
F F 0.1032470394104849 0.10165483017213156 -0.015388325301930919 0.0
F F 0.9215724872173142 0.9254061352798674 0.007908024844446733 0.0
F F 0.903076280171974 0.08328833290814198 0.0048239347834501695 0.0
F F 0.08786271052362636 0.905051858416584 0.020478338291404153 0.0
