_cell_length_a 13.649
_cell_length_b 13.649
_cell_length_c 8.092
_cell_angle_alpha 90.0
_cell_angle_beta 90.0
_cell_angle_gamma 90.0
_symmetry_space_group_name_H-M         'P 1'
_symmetry_Int_Tables_number            1
loop_
_symmetry_equiv_pos_as_xyz
   'x, y, z'
                         
loop_
_atom_site_label
_atom_site_type_symbol
_atom_site_fract_x 
_atom_site_fract_y
_atom_site_fract_z
_atom_site_charge
C7 C7 0.03764128999607579 0.31375254102521527 0.30578545904330945 0.0
C9 C9 0.036256783192033626 0.18765879665031976 0.37775870189164656 0.0
C7 C7 0.4910156936081659 0.7993509910453772 0.8425451665067702 0.0
C9 C9 0.5067209182323373 0.695392188294712 0.8693386921335337 0.0
C7 C7 -0.008571665993188274 0.6960492427588366 0.31182202858476316 0.0
C9 C9 0.00232980840087443 0.7858258775953666 0.3541407036862515 0.0
C7 C7 0.46973381194323316 0.23140743436362773 0.8066007699341924 0.0
C9 C9 0.5109089408233328 0.2990905536130891 0.8739843460722041 0.0
C7 C7 0.7142348587413705 0.006121218797988257 0.34013508531394815 0.0
C9 C9 0.8086616665672024 -0.0010353946794514877 0.3684197600740467 0.0
C7 C7 0.18843314526313476 0.4762354134871707 0.8213826989953044 0.0
C9 C9 0.2901340751558193 0.5237383072264621 0.8425123832446665 0.0
C7 C7 0.290442166377876 0.008294316185705133 0.4028837197495683 0.0
C9 C9 0.1835556569285167 -0.008018772680707288 0.34180175078130404 0.0
C7 C7 0.8097286874860481 0.4742331280709623 0.8604244924329034 0.0
C9 C9 0.6891244136291852 0.5069925744986639 0.8345669214289104 0.0
C7 C7 0.018327444450567824 0.2871580944446589 0.6604662497697528 0.0
C9 C9 0.022199705417713638 0.18364927324826563 0.6421485643093332 0.0
C7 C7 0.5024618474412565 0.7764819097129972 0.14729099852078256 0.0
C9 C9 0.5080391671007486 0.6756116086580196 0.1409104155580902 0.0
C7 C7 0.022119198178350664 0.6962932852907834 0.6604010516184382 0.0
C9 C9 -0.0093200742253918 0.8039034625419866 0.6404529996966349 0.0
C7 C7 0.48252825054632337 0.1910579796375979 0.14751586828503796 0.0
C9 C9 0.529746628901479 0.2606380725084983 0.14326709029541582 0.0
C7 C7 0.2860072131745908 0.00495833244376445 0.6869275531639758 0.0
C9 C9 0.18806398348920644 -0.0020469676080277985 0.6867397871328704 0.0
C7 C7 0.7914197064090764 0.48984322564066934 0.185302084872405 0.0
C9 C9 0.6878401562219892 0.4871868141223246 0.13633570156333127 0.0
C7 C7 0.70029069579578 0.00550469459516208 0.6243975356684159 0.0
C9 C9 0.801002997936861 0.014881669612807723 0.635231109912706 0.0
C7 C7 0.21780933995244475 0.4949431217230399 0.1333570229187328 0.0
C9 C9 0.28159988503010197 0.5005517031615584 0.1208918259418859 0.0
C5 C5 -0.0037793664236305115 0.4503546559675347 0.47741146241481947 0.0
C8 C8 0.0009261020960067919 0.3586834832239727 0.4819411671491966 0.0
C5 C5 0.5180915668455457 0.9600386348056206 0.011059984028890597 0.0
C5 C5 0.4844540712836849 0.8595654477766703 -0.02034609382317972 0.0
C5 C5 0.02643043387768662 0.5736605202522633 0.5056519279632806 0.0
C8 C8 0.011186841652233248 0.6342683326868689 0.514187111355173 0.0
C5 C5 0.4914562424511666 0.05577359452005067 -0.009081211949561012 0.0
C5 C5 0.49940699778917785 0.150316911793554 -0.023060535162969464 0.0
C5 C5 0.5464333261317176 -0.030160125944615594 0.5266336168343293 0.0
C8 C8 0.6353235319395022 0.023602042835408614 0.5347582041149419 0.0
C5 C5 0.03268599583268789 0.4987785454515073 -0.010706567255542013 0.0
C8 C8 0.1327669913107542 0.48464449859095465 0.03260901760214188 0.0
C5 C5 0.4225000445397263 -0.016663280396616954 0.4376125521629096 0.0
C8 C8 0.3508728813848118 -0.008463531816120447 0.5116189188091036 0.0
C5 C5 0.9677547015291598 0.5128313155497864 0.053759932791165775 0.0
C8 C8 0.8380667080821622 0.5085352621053891 0.030169678979469854 0.0
H H 0.0376412899960758 0.35152254102521524 0.1873054590433094 0.0
H H 0.03625678319203363 0.14458879665031976 0.2645287018916466 0.0
H H 0.49101569360816594 0.8371209910453773 0.7240651665067701 0.0
H H 0.5067209182323373 0.652322188294712 0.7561086921335336 0.0
H H -0.008571665993188272 0.6582792427588366 0.19334202858476313 0.0
H H 0.00232980840087443 0.8288958775953666 0.2409107036862515 0.0
H H 0.4697338119432332 0.19363743436362776 0.6881207699341924 0.0
H H 0.5109089408233328 0.34216055361308917 0.760754346072204 0.0
H H 0.6764648587413704 0.0061212187979882565 0.22165508531394815 0.0
H H 0.8517316665672026 -0.0010353946794514877 0.2551897600740467 0.0
H H 0.1506631452631348 0.47623541348717074 0.7029026989953043 0.0
H H 0.33320407515581935 0.5237383072264621 0.7292823832446664 0.0
H H 0.328212166377876 0.008294316185705131 0.28440371974956835 0.0
H H 0.1404856569285167 -0.00801877268070729 0.22857175078130398 0.0
H H 0.8474986874860481 0.47423312807096235 0.7419444924329033 0.0
H H 0.6460544136291851 0.5069925744986639 0.7213369214289104 0.0
H H 0.018327444450567828 0.32492809444465887 0.7789462497697529 0.0
H H 0.022199705417713638 0.14057927324826563 0.7553785643093333 0.0
H H 0.5024618474412565 0.8142519097129973 0.26577099852078256 0.0
H H 0.5080391671007486 0.6325416086580194 0.25414041555809025 0.0
H H 0.022119198178350664 0.6585232852907833 0.7788810516184382 0.0
H H -0.009320074225391802 0.8469734625419867 0.753682999696635 0.0
H H 0.48252825054632337 0.1532879796375979 0.26599586828503796 0.0
H H 0.529746628901479 0.30370807250849824 0.25649709029541584 0.0
H H 0.32377721317459074 0.004958332443764449 0.8054075531639758 0.0
H H 0.14499398348920647 -0.0020469676080277985 0.7999697871328705 0.0
H H 0.8291897064090765 0.48984322564066934 0.303782084872405 0.0
H H 0.6447701562219891 0.4871868141223246 0.24956570156333133 0.0
H H 0.6625206957957799 0.00550469459516208 0.742877535668416 0.0
H H 0.8440729979368611 0.014881669612807721 0.7484611099127061 0.0
H H 0.18003933995244475 0.4949431217230399 0.2518370229187328 0.0
H H 0.3246698850301019 0.5005517031615584 0.2341218259418859 0.0
Cu Cu 0.018573305823821565 -0.017806465563654214 0.4925985894786206 0.0
Cu Cu 0.5080496802015789 0.5010800199740646 0.006610730707217361 0.0
Si Si -0.0009348805844969513 0.00044698836955974695 0.010631569168794298 0.0
Si Si 0.5253284243516305 0.4794519269878034 0.5272591411206599 0.0
N N 0.005356328282411806 0.16247665116672555 0.48741760174037935 0.0
N N 0.5169703257089593 0.6671952442974967 0.02352123470760998 0.0
N N 0.021485052176208146 0.8597845741665932 0.4865499828894417 0.0
N N 0.5133075545240389 0.36728997101571403 -0.01698420204186141 0.0
N N 0.8633998016943281 -0.006600596712171964 0.5235459236712557 0.0
N N 0.335559992549296 0.49078763885650245 -0.010803932014375645 0.0
N N 0.14261625630199531 -0.023354532913365943 0.49098906682172355 0.0
N N 0.6302253527986302 0.5094106594474345 -0.01038902500999455 0.0
F3 F3 -0.02463957161208413 -0.02205350264545069 0.7756442502417518 0.0
F3 F3 0.5116634983324403 0.49980597692468554 0.2821554601354315 0.0
F3 F3 0.01404668657013961 0.0016193329654700707 0.21515197360174265 0.0
F3 F3 0.5001238296882644 0.5143626089423966 0.732178097146104 0.0
F F 0.5861866024627576 0.5851670364194123 0.5159940085047854 0.0
F F 0.5704494040039443 0.4210493188672603 0.5192678680430155 0.0
F F 0.40450827617607565 0.6085053936577405 0.4683719687062629 0.0
F F 0.4247639786487177 0.410414596244221 0.49510789439520647 0.0
F F 0.08903174557553922 0.08348681105272403 0.0015377863799354743 0.0
F F 0.9235371372947927 0.9158242069975557 -0.010610460437635215 0.0
F F 0.9062606562799185 0.09372708261298528 -0.0036412205792087427 0.0
F F 0.08990246500275265 0.9109583068868484 -0.02936165962562104 0.0
