_cell_length_a 13.649
_cell_length_b 13.649
_cell_length_c 8.092
_cell_angle_alpha 90.0
_cell_angle_beta 90.0
_cell_angle_gamma 90.0
_symmetry_space_group_name_H-M         'P 1'
_symmetry_Int_Tables_number            1
loop_
_symmetry_equiv_pos_as_xyz
   'x, y, z'
                         
loop_
_atom_site_label
_atom_site_type_symbol
_atom_site_fract_x 
_atom_site_fract_y
_atom_site_fract_z
_atom_site_charge
C7 C7 0.0209549629816149 0.27722592224448983 0.3709116174465492 0.0
C9 C9 -0.002566752997052871 0.18621889302300085 0.39323537363816247 0.0
C7 C7 0.5226815274474075 0.811535063352226 0.8057110473179441 0.0
C9 C9 0.477766825085997 0.6695936618776928 0.8803234828906846 0.0
C7 C7 -0.0014695131845041864 0.6998129329073679 0.370552593052221 0.0
C9 C9 0.013782079854978747 0.799891930748031 0.3315009051805156 0.0
C7 C7 0.4599074474894656 0.2039693758880893 0.8443938718595951 0.0
C9 C9 0.473762026819952 0.3155122608075008 0.8381917017536253 0.0
C7 C7 0.671831011174935 0.012608637212361462 0.3746763824639113 0.0
C9 C9 0.8014892012628491 0.008337041894194517 0.3911088309052516 0.0
C7 C7 0.22816550517379816 0.5267892405841039 0.8477533184168784 0.0
C9 C9 0.28893188968761907 0.4962675856992243 0.8951474656675202 0.0
C7 C7 0.31148658387716277 -0.01493781765487492 0.365630553958319 0.0
C9 C9 0.19369477956562825 -0.0011188064343389539 0.3425147958632965 0.0
C7 C7 0.77988364837016 0.515964584130714 0.8663277343866951 0.0
C9 C9 0.7086003403268167 0.48793993601527735 0.8127201696938939 0.0
C7 C7 0.03557465472023113 0.29321815861490064 0.6154527077020489 0.0
C9 C9 0.002764600765037141 0.21833538565638375 0.5951409212361343 0.0
C7 C7 0.5063664450520647 0.7653676250800157 0.15677447131977695 0.0
C9 C9 0.5163166613343697 0.7014055488634929 0.13801234061107343 0.0
C7 C7 0.0047869709820119585 0.709529101098001 0.6482738168589959 0.0
C9 C9 0.011625761674428059 0.8183409740104245 0.6285529646497464 0.0
C7 C7 0.5039948157491521 0.19613804129721477 0.16994639454941646 0.0
C9 C9 0.47852730556228307 0.32102092770846363 0.10249498558655436 0.0
C7 C7 0.30370229190159564 -0.006931717928256246 0.6532105691326022 0.0
C9 C9 0.20327939313567278 0.0047365212648490685 0.6429324744180595 0.0
C7 C7 0.7945137857902779 0.5081341355902433 0.1346458502106187 0.0
C9 C9 0.7075654782660702 0.5003492807989206 0.17089750763055953 0.0
C7 C7 0.696148581806111 -0.01712842018803661 0.6716621238492334 0.0
C9 C9 0.804987510285245 -0.004468246521331277 0.620550619994799 0.0
C7 C7 0.1850611438589972 0.5007632579952739 0.11975341157265099 0.0
C9 C9 0.3034091602584414 0.5043546046540993 0.1840815655245333 0.0
C5 C5 0.016582023196765234 0.4341674258468173 0.5019410796396009 0.0
C8 C8 -0.010979224644512706 0.35365604511006865 0.45284285163591714 0.0
C5 C5 0.5103484947459725 0.9479514571245564 -0.003191805242050701 0.0
C5 C5 0.49562849945915777 0.8507729180363737 -0.012152492725050564 0.0
C5 C5 0.02856342351258252 0.573006961285875 0.46473988894327195 0.0
C8 C8 0.0009805385917098408 0.6583741028316916 0.5220630846408338 0.0
C5 C5 0.5052679679140053 0.05893478094221469 -0.0170360928448776 0.0
C5 C5 0.5070036627589899 0.16899249871708202 -0.00039401780575873895 0.0
C5 C5 0.5466629208667467 0.0029240172488625873 0.47126954618104366 0.0
C8 C8 0.6221077545351196 -0.026235869158131354 0.49207356596941065 0.0
C5 C5 0.04101588891536048 0.4799077490736199 -0.034638702067923834 0.0
C8 C8 0.12284528816318105 0.4928585881262136 -0.0012113101990254517 0.0
C5 C5 0.44986091439368175 0.011029474703062052 0.4706624998609913 0.0
C8 C8 0.3502207914454655 0.01741522060661808 0.5097845847474304 0.0
C5 C5 0.9907824110996801 0.5208951809639553 0.030838331604903013 0.0
C8 C8 0.8650545099225264 0.4954941189515747 -0.01775323853173759 0.0
H H 0.020954962981614898 0.31499592224448986 0.2524316174465492 0.0
H H -0.0025667529970528707 0.14314889302300088 0.28000537363816247 0.0
H H 0.5226815274474075 0.8493050633522261 0.687231047317944 0.0
H H 0.477766825085997 0.6265236618776927 0.7670934828906846 0.0
H H -0.0014695131845041862 0.6620429329073678 0.2520725930522209 0.0
H H 0.013782079854978747 0.842961930748031 0.21827090518051562 0.0
H H 0.45990744748946566 0.1661993758880893 0.7259138718595951 0.0
H H 0.47376202681995205 0.35858226080750083 0.7249617017536253 0.0
H H 0.634061011174935 0.012608637212361464 0.2561963824639112 0.0
H H 0.8445592012628492 0.008337041894194515 0.27787883090525156 0.0
H H 0.19039550517379816 0.5267892405841039 0.7292733184168783 0.0
H H 0.332001889687619 0.4962675856992243 0.7819174656675202 0.0
H H 0.34925658387716274 -0.01493781765487492 0.24715055395831895 0.0
H H 0.15062477956562825 -0.0011188064343389539 0.2292847958632965 0.0
H H 0.8176536483701601 0.515964584130714 0.747847734386695 0.0
H H 0.6655303403268167 0.4879399360152774 0.6994901696938939 0.0
H H 0.03557465472023113 0.33098815861490066 0.733932707702049 0.0
H H 0.002764600765037141 0.17526538565638375 0.7083709212361343 0.0
H H 0.5063664450520647 0.8031376250800157 0.275254471319777 0.0
H H 0.5163166613343697 0.6583355488634928 0.2512423406110735 0.0
H H 0.0047869709820119585 0.671759101098001 0.7667538168589959 0.0
H H 0.011625761674428057 0.8614109740104245 0.7417829646497465 0.0
H H 0.5039948157491521 0.15836804129721477 0.28842639454941643 0.0
H H 0.47852730556228307 0.36409092770846363 0.21572498558655437 0.0
H H 0.34147229190159556 -0.006931717928256246 0.7716905691326024 0.0
H H 0.16020939313567278 0.0047365212648490685 0.7561624744180595 0.0
H H 0.832283785790278 0.5081341355902433 0.2531258502106187 0.0
H H 0.66449547826607 0.5003492807989206 0.28412750763055955 0.0
H H 0.658378581806111 -0.01712842018803661 0.7901421238492335 0.0
H H 0.848057510285245 -0.004468246521331277 0.7337806199947992 0.0
H H 0.1472911438589972 0.5007632579952739 0.23823341157265096 0.0
H H 0.3464791602584414 0.5043546046540993 0.2973115655245333 0.0
Cu Cu -0.025096747125941593 -0.017381974997691153 0.5080695234033469 0.0
Cu Cu 0.47889022449706875 0.5211633316113706 -0.03158112457559148 0.0
Si Si 0.0020182198891812247 0.0006995809138307657 -0.0068247590937589395 0.0
Si Si 0.49143049373431946 0.5030037501755729 0.47075138741358874 0.0
N N -0.01921725621354061 0.13929138637748226 0.5432914752250082 0.0
N N 0.5150974429647069 0.6291976361348866 0.005557371352914954 0.0
N N 0.004946809042627095 0.8661008358552625 0.5127950636854582 0.0
N N 0.4845695655525316 0.3505804516739365 -0.0153886059982701 0.0
N N 0.8603006579753721 0.015166245699729663 0.5287488771795478 0.0
N N 0.3572950162972487 0.5075610506530129 -0.03428698992048341 0.0
N N 0.14235282782486053 0.008252308637402419 0.4900106189165116 0.0
N N 0.6520607582567045 0.49734348544602985 -0.017252086519551988 0.0
F3 F3 0.00849259403359855 0.016097715133643525 0.7902554196808539 0.0
F3 F3 0.5169800528011286 0.4774648066108649 0.2685675851644351 0.0
F3 F3 0.006436991026250203 -0.011988171265414594 0.2007592963857657 0.0
F3 F3 0.5131647842531364 0.5216386850823863 0.704312211165062 0.0
F F 0.5689782933507243 0.5500008072878414 0.5401123855038328 0.0
F F 0.5924305862846073 0.4172142094877676 0.4721960425846684 0.0
F F 0.4083387094410041 0.5911332472965902 0.4589949402061243 0.0
F F 0.40346841075149864 0.416738011946391 0.5089706736955973 0.0
F F 0.07051562084212752 0.06729414132758758 -0.019243528551727847 0.0
F F 0.9094649061824264 0.9138260144026408 0.024075368438797724 0.0
F F 0.9340848402410582 0.06583820765588208 -0.004397405311044643 0.0
F F 0.0898404910030573 0.9054855345459497 -0.028218155062808226 0.0
