_cell_length_a 13.649
_cell_length_b 13.649
_cell_length_c 8.092
_cell_angle_alpha 90.0
_cell_angle_beta 90.0
_cell_angle_gamma 90.0
_symmetry_space_group_name_H-M         'P 1'
_symmetry_Int_Tables_number            1
loop_
_symmetry_equiv_pos_as_xyz
   'x, y, z'
                         
loop_
_atom_site_label
_atom_site_type_symbol
_atom_site_fract_x 
_atom_site_fract_y
_atom_site_fract_z
_atom_site_charge
C7 C7 0.009948846150688721 0.3118180644924822 0.3668215290769215 0.0
C9 C9 0.013265985184978233 0.17720608356082995 0.3414153053463036 0.0
C7 C7 0.48595813356573636 0.7893126900717403 0.8378440482937489 0.0
C9 C9 0.46588335076798265 0.6949998933009854 0.8564515919653556 0.0
C7 C7 0.03307114517047663 0.6872808832666797 0.36500321067773284 0.0
C9 C9 0.006807875831145901 0.789118925128063 0.3378374864165954 0.0
C7 C7 0.5148051784468222 0.21053348839280228 0.7964450395755793 0.0
C9 C9 0.5399469142118668 0.3012497401193776 0.9003125692969844 0.0
C7 C7 0.6981728807823744 -0.00524712403192941 0.3641258875066743 0.0
C9 C9 0.7922466138153078 -0.019686888918988545 0.37007773021661905 0.0
C7 C7 0.1945534144362403 0.47588677990498657 0.8922783053106724 0.0
C9 C9 0.27776276750453816 0.474735162238668 0.8400021240903787 0.0
C7 C7 0.3100323690042336 -0.0036604026379706655 0.3335999679892927 0.0
C9 C9 0.22683031617939367 0.024024843789342776 0.36822327519575104 0.0
C7 C7 0.7753002061261302 0.5009983869024136 0.8357642909942445 0.0
C9 C9 0.6941882590693969 0.5485333037666481 0.8874227765099388 0.0
C7 C7 0.006289115416772097 0.2824541180390304 0.6573477149394764 0.0
C9 C9 0.020554052487655964 0.22910319151381486 0.6405005559233222 0.0
C7 C7 0.5019777343569248 0.7932182457179631 0.14660167783946307 0.0
C9 C9 0.5342172402906817 0.6976190327300148 0.10647760891129114 0.0
C7 C7 0.018097748566755258 0.7064025585287331 0.6428784419340483 0.0
C9 C9 -0.013860648896439481 0.7812312944600132 0.6201702714016214 0.0
C7 C7 0.5084635421452494 0.18487951958131912 0.16964724684340712 0.0
C9 C9 0.5235382353968763 0.301357665496875 0.11969886313416742 0.0
C7 C7 0.30485395576447566 -0.02085796826136291 0.6401024519587376 0.0
C9 C9 0.19461140751308695 0.0019106442349102063 0.6312273517222001 0.0
C7 C7 0.8026718079234795 0.5143220763991555 0.16863986398823563 0.0
C9 C9 0.7053559054429912 0.49581414660397954 0.14291258558568534 0.0
C7 C7 0.6943272666326146 -0.0009843578933456125 0.6651255874049911 0.0
C9 C9 0.8098931596754617 0.004764896176786994 0.6837468897030629 0.0
C7 C7 0.21820108589102288 0.5311178534715394 0.17142331311870407 0.0
C9 C9 0.2953565654338552 0.5063851589829581 0.1284561391029227 0.0
C5 C5 -0.0002785819336352138 0.4461223268968597 0.5643994247306104 0.0
C8 C8 -0.005122162627577018 0.37027579882003714 0.4710101483938898 0.0
C5 C5 0.4974077668341125 0.9380455497223477 0.0016692081373883311 0.0
C5 C5 0.5013749129713475 0.8397185221123968 0.007094238180971196 0.0
C5 C5 0.004135692574888239 0.5437066997939263 0.49503968638679297 0.0
C8 C8 0.00575296991830497 0.651424222445442 0.49474777885772375 0.0
C5 C5 0.5033697238965027 0.05555848133931239 0.024412928561880234 0.0
C5 C5 0.4884599779463565 0.1716840158782518 -0.04878144402133802 0.0
C5 C5 0.5208349763528334 0.020590584024473314 0.4926089992753711 0.0
C8 C8 0.6437986951516212 0.005185455238092268 0.49383863889996876 0.0
C5 C5 0.01015817516391765 0.47520226032348517 -0.006664202588674147 0.0
C8 C8 0.13483588093709953 0.5030551496902209 -0.03145382384471185 0.0
C5 C5 0.45123989698829886 -0.016739411653983634 0.5222776438298861 0.0
C8 C8 0.3593706884290747 -0.03192465043920957 0.4984697321969252 0.0
C5 C5 0.9633726026330022 0.5114039078762702 -0.006408202802384123 0.0
C8 C8 0.8355374652170467 0.49934470237550754 -0.0032173338817175477 0.0
H H 0.009948846150688723 0.34958806449248225 0.2483415290769215 0.0
H H 0.013265985184978233 0.13413608356082996 0.2281853053463036 0.0
H H 0.4859581335657364 0.8270826900717404 0.7193640482937489 0.0
H H 0.4658833507679827 0.6519298933009853 0.7432215919653555 0.0
H H 0.03307114517047663 0.6495108832666796 0.2465232106777328 0.0
H H 0.006807875831145902 0.8321889251280631 0.22460748641659542 0.0
H H 0.5148051784468222 0.17276348839280228 0.6779650395755792 0.0
H H 0.5399469142118668 0.34431974011937755 0.7870825692969843 0.0
H H 0.6604028807823744 -0.005247124031929411 0.24564588750667427 0.0
H H 0.8353166138153079 -0.019686888918988545 0.2568477302166191 0.0
H H 0.1567834144362403 0.47588677990498657 0.7737983053106723 0.0
H H 0.32083276750453815 0.4747351622386681 0.7267721240903786 0.0
H H 0.34780236900423356 -0.003660402637970665 0.2151199679892927 0.0
H H 0.18376031617939367 0.024024843789342772 0.25499327519575105 0.0
H H 0.8130702061261302 0.5009983869024136 0.7172842909942445 0.0
H H 0.6511182590693968 0.5485333037666481 0.7741927765099388 0.0
H H 0.006289115416772098 0.3202241180390304 0.7758277149394764 0.0
H H 0.020554052487655964 0.1860331915138149 0.7537305559233223 0.0
H H 0.5019777343569248 0.8309882457179631 0.265081677839463 0.0
H H 0.5342172402906817 0.6545490327300147 0.21970760891129118 0.0
H H 0.018097748566755254 0.6686325585287332 0.7613584419340483 0.0
H H -0.01386064889643948 0.8243012944600133 0.7334002714016215 0.0
H H 0.5084635421452494 0.14710951958131913 0.28812724684340707 0.0
H H 0.5235382353968763 0.344427665496875 0.23292886313416744 0.0
H H 0.34262395576447563 -0.020857968261362908 0.7585824519587376 0.0
H H 0.15154140751308695 0.0019106442349102063 0.7444573517222002 0.0
H H 0.8404418079234796 0.5143220763991555 0.2871198639882356 0.0
H H 0.662285905442991 0.49581414660397954 0.25614258558568537 0.0
H H 0.6565572666326146 -0.0009843578933456125 0.7836055874049911 0.0
H H 0.8529631596754619 0.004764896176786995 0.796976889703063 0.0
H H 0.18043108589102289 0.5311178534715394 0.28990331311870404 0.0
H H 0.3384265654338552 0.5063851589829581 0.24168613910292272 0.0
Cu Cu -0.00359474078732902 0.025789581475837396 0.5027374689717172 0.0
Cu Cu 0.48826804320586564 0.48020966048661273 -0.051436629698656776 0.0
Si Si -0.016108015183768157 -0.011800483726068199 -0.034066722313932096 0.0
Si Si 0.4845840239703065 0.4691646224570689 0.5156958059680171 0.0
N N 0.00748290544157708 0.1356518754853247 0.5123942999852042 0.0
N N 0.4913087471167104 0.6473640921431866 -0.00801927965171624 0.0
N N -0.003891213820882797 0.8467783062630854 0.47565806614021783 0.0
N N 0.5151245543875812 0.3695761843988876 0.006014365241931633 0.0
N N 0.8287787655274175 -0.010246349667601254 0.47041230364904385 0.0
N N 0.34578803526037466 0.47575013546428496 0.020822459613210595 0.0
N N 0.17867459316589304 -0.010527282532195564 0.48745088655291213 0.0
N N 0.6411313207117828 0.4941512642079997 0.028889851726427464 0.0
F3 F3 -0.015400844454103248 0.00659838636135274 0.7883843771018202 0.0
F3 F3 0.4890248130145085 0.5003142330041137 0.2660834394422169 0.0
F3 F3 0.012594932567919069 -0.018027820177154846 0.2190572773158029 0.0
F3 F3 0.5004824683573971 0.4875954677436082 0.7128379749251498 0.0
F F 0.5645397848690786 0.5668168683627254 0.4414467436702746 0.0
F F 0.5967069143412383 0.40926945050567665 0.47610586789647624 0.0
F F 0.4230418317934091 0.6058531403557287 0.4846647833435543 0.0
F F 0.41019706426305785 0.4073530844208572 0.5024973597558301 0.0
F F 0.06132066342325779 0.09389490669915698 0.013354849430971573 0.0
F F 0.9086952400331166 0.9276793428198508 -0.0011695562338633338 0.0
F F 0.909070109047993 0.0870956508424496 0.01700374810073635 0.0
F F 0.08584090118429544 0.8807106951183511 0.05289398416475791 0.0
