_cell_length_a 13.649
_cell_length_b 13.649
_cell_length_c 8.092
_cell_angle_alpha 90.0
_cell_angle_beta 90.0
_cell_angle_gamma 90.0
_symmetry_space_group_name_H-M         'P 1'
_symmetry_Int_Tables_number            1
loop_
_symmetry_equiv_pos_as_xyz
   'x, y, z'
                         
loop_
_atom_site_label
_atom_site_type_symbol
_atom_site_fract_x 
_atom_site_fract_y
_atom_site_fract_z
_atom_site_charge
C7 C7 -0.012825041237404293 0.2818936210226949 0.40302617580531797 0.0
C9 C9 -0.0010362168332826046 0.17302976791552382 0.34043717955443453 0.0
C7 C7 0.4868754119863008 0.7882441902250331 0.8386014877659346 0.0
C9 C9 0.49789317473698946 0.7246818274385198 0.8821691850897814 0.0
C7 C7 -0.004164146341509522 0.685627663898564 0.3338113200110456 0.0
C9 C9 -0.03054898419674704 0.7750838427108889 0.3256667482483653 0.0
C7 C7 0.4909540996933614 0.1918443307518883 0.874420566912214 0.0
C9 C9 0.5047723984927697 0.3290981277695569 0.8598353506427729 0.0
C7 C7 0.6964199531303121 0.019738549186422517 0.33932600433960153 0.0
C9 C9 0.7905958065120797 0.002704636415627085 0.3827408267961834 0.0
C7 C7 0.21478582756703196 0.4824968655440728 0.879154358474681 0.0
C9 C9 0.3231116609551761 0.4959044213580077 0.843526863807552 0.0
C7 C7 0.24825221706443198 0.022506070974280985 0.33735033312094764 0.0
C9 C9 0.161946540119918 -0.001427667758623698 0.3332978937806251 0.0
C7 C7 0.7893096567148551 0.5239230304780781 0.8569117297234249 0.0
C9 C9 0.7129343388657682 0.5183143530281574 0.8300075163219497 0.0
C7 C7 0.004642370618592675 0.29271670192239735 0.6868339560316499 0.0
C9 C9 -0.014655704801072983 0.18925104788385239 0.6455425591945543 0.0
C7 C7 0.4884424120555681 0.8136663329580808 0.15412658827445747 0.0
C9 C9 0.5051627192079513 0.6955245232838463 0.1343859924749884 0.0
C7 C7 0.0033434969024281856 0.6826988488738083 0.6691015544661372 0.0
C9 C9 -0.03167835244880383 0.7923252573236298 0.6463297153646936 0.0
C7 C7 0.49346179026640885 0.20579957835573323 0.14086962557497323 0.0
C9 C9 0.5098309190873923 0.2924306468302219 0.14788122531946443 0.0
C7 C7 0.299637458081882 0.01879074293817601 0.6447252943111964 0.0
C9 C9 0.19244037843064143 -0.003892245768548603 0.6438999028866491 0.0
C7 C7 0.807410560525679 0.48563875305848936 0.16883096415758875 0.0
C9 C9 0.6984880075869307 0.51142161404344 0.1573918151666555 0.0
C7 C7 0.6912553301593095 -0.00291582111826497 0.6887546300855655 0.0
C9 C9 0.8149605244771884 0.004167175476264306 0.6046577408774478 0.0
C7 C7 0.20493191838045977 0.49577587367654646 0.11379861555859387 0.0
C9 C9 0.29854912878447915 0.5152620817181494 0.10613564988995747 0.0
C5 C5 0.0009341914330650726 0.45132695083691043 0.4398183673287893 0.0
C8 C8 -0.010330357113555165 0.33768180051706737 0.5419066976662865 0.0
C5 C5 0.501771494636943 0.953018433535627 0.014967940465964556 0.0
C5 C5 0.5039218391286997 0.8621819074872622 0.012056218849635744 0.0
C5 C5 -0.007338558487593493 0.5609001354037154 0.50093519342456 0.0
C8 C8 0.00658466754329251 0.6361313882075522 0.4829282349501919 0.0
C5 C5 0.4951341314876934 0.04152021000174226 -0.02245890307452831 0.0
C5 C5 0.49020903785427794 0.1311324789839666 0.0178121885537293 0.0
C5 C5 0.5591618275174449 -0.015373337457269041 0.5070407069175529 0.0
C8 C8 0.6428836511354395 -0.019972757035807615 0.5222591700510525 0.0
C5 C5 0.05448456468241819 0.5124858167243496 0.04855509217075345 0.0
C8 C8 0.1395049275084508 0.521848225290474 0.017370022812192916 0.0
C5 C5 0.46205860438659907 0.015261122184984837 0.530369055192509 0.0
C8 C8 0.38271439592797835 -0.004302883057110357 0.4674935416767704 0.0
C5 C5 0.9564656269283933 0.496407090076254 -0.028049077324804054 0.0
C8 C8 0.8668585069251236 0.4850671328340862 -0.022017955648985184 0.0
H H -0.012825041237404293 0.31966362102269485 0.28454617580531794 0.0
H H -0.0010362168332826046 0.12995976791552383 0.2272071795544345 0.0
H H 0.48687541198630085 0.8260141902250332 0.7201214877659344 0.0
H H 0.49789317473698946 0.6816118274385197 0.7689391850897813 0.0
H H -0.0041641463415095226 0.6478576638985639 0.21533132001104555 0.0
H H -0.030548984196747037 0.818153842710889 0.21243674824836528 0.0
H H 0.49095409969336146 0.1540743307518883 0.755940566912214 0.0
H H 0.5047723984927697 0.37216812776955693 0.7466053506427729 0.0
H H 0.658649953130312 0.01973854918642252 0.2208460043396015 0.0
H H 0.8336658065120798 0.0027046364156270847 0.2695108267961834 0.0
H H 0.17701582756703196 0.48249686554407284 0.760674358474681 0.0
H H 0.3661816609551762 0.4959044213580078 0.730296863807552 0.0
H H 0.286022217064432 0.02250607097428099 0.2188703331209476 0.0
H H 0.11887654011991798 -0.0014276677586236978 0.2200678937806251 0.0
H H 0.8270796567148552 0.5239230304780781 0.7384317297234249 0.0
H H 0.6698643388657681 0.5183143530281574 0.7167775163219496 0.0
H H 0.004642370618592677 0.33048670192239726 0.80531395603165 0.0
H H -0.01465570480107298 0.1461810478838524 0.7587725591945543 0.0
H H 0.4884424120555681 0.8514363329580809 0.27260658827445744 0.0
H H 0.5051627192079513 0.6524545232838462 0.24761599247498842 0.0
H H 0.003343496902428185 0.6449288488738083 0.7875815544661373 0.0
H H -0.03167835244880383 0.8353952573236298 0.7595597153646937 0.0
H H 0.49346179026640885 0.16802957835573323 0.2593496255749732 0.0
H H 0.5098309190873923 0.3355006468302219 0.26111122531946446 0.0
H H 0.337407458081882 0.01879074293817601 0.7632052943111965 0.0
H H 0.1493703784306414 -0.003892245768548603 0.7571299028866492 0.0
H H 0.8451805605256791 0.48563875305848936 0.28731096415758867 0.0
H H 0.6554180075869307 0.51142161404344 0.2706218151666555 0.0
H H 0.6534853301593094 -0.0029158211182649697 0.8072346300855656 0.0
H H 0.8580305244771885 0.004167175476264306 0.7178877408774479 0.0
H H 0.16716191838045977 0.49577587367654646 0.23227861555859383 0.0
H H 0.3416191287844791 0.5152620817181494 0.2193656498899575 0.0
Cu Cu -0.013775383055863255 -0.013248555097224267 0.5181709199907953 0.0
Cu Cu 0.4850150408599929 0.4943610180398201 -0.03604365309074469 0.0
Si Si -0.029295511993255325 0.0011820799383399337 -0.054466622071332856 0.0
Si Si 0.4831947250162004 0.48648530386794714 0.47816114021005546 0.0
N N -0.014864754847376057 0.12593594536238403 0.4781623180303375 0.0
N N 0.5154245566797373 0.6814362452274135 0.04155252443037058 0.0
N N -0.005929235439965371 0.8484632755377587 0.5010166204540556 0.0
N N 0.4882789847040568 0.3689234551420115 -0.0156542109708388 0.0
N N 0.8738945436700477 -0.005858247163741804 0.5566774889423627 0.0
N N 0.3607714388456275 0.5065667340979759 0.0027690219872181614 0.0
N N 0.15581203437681815 0.03801862489694656 0.46544402766634846 0.0
N N 0.6413845133461545 0.5100118244746705 -0.03411326651614583 0.0
F3 F3 -0.010149435910976543 0.007338778546252451 0.7664020915181717 0.0
F3 F3 0.4967784113593396 0.47565385641453456 0.29739962500906997 0.0
F3 F3 0.013212266568931057 0.00016000611761606166 0.1985563887670145 0.0
F3 F3 0.5102006832160039 0.4881314775295946 0.7155108096099763 0.0
F F 0.5689390581778214 0.5818833611323571 0.4868235849051408 0.0
F F 0.5705350173310995 0.41925934380541197 0.5160186670827938 0.0
F F 0.43925004987051147 0.5875175181728797 0.47929864312241444 0.0
F F 0.4084739950120736 0.3966672641195826 0.49029987467413483 0.0
F F 0.08882267313347328 0.12462962703228897 0.03452005897424489 0.0
F F 0.907657946660073 0.8812182227909198 -0.02056690601786202 0.0
F F 0.9068290951860447 0.11959918382634463 -0.032023263167211984 0.0
F F 0.06759732290561779 0.9159339823153434 -0.020173879665726684 0.0
