_cell_length_a 13.649
_cell_length_b 13.649
_cell_length_c 8.092
_cell_angle_alpha 90.0
_cell_angle_beta 90.0
_cell_angle_gamma 90.0
_symmetry_space_group_name_H-M         'P 1'
_symmetry_Int_Tables_number            1
loop_
_symmetry_equiv_pos_as_xyz
   'x, y, z'
                         
loop_
_atom_site_label
_atom_site_type_symbol
_atom_site_fract_x 
_atom_site_fract_y
_atom_site_fract_z
_atom_site_charge
C7 C7 0.01984709658316337 0.29990289117590824 0.3991702238657243 0.0
C9 C9 -0.027005799161740472 0.1788473617858956 0.4090971270948076 0.0
C7 C7 0.49585412003892715 0.7892487192753833 0.9095333280343374 0.0
C9 C9 0.4880912186286818 0.7009526554886444 0.8590793093135135 0.0
C7 C7 -0.004159439608096611 0.7175757744689764 0.35011359317167473 0.0
C9 C9 0.00733895729588059 0.7863595625231994 0.36787745058559407 0.0
C7 C7 0.4660391784411443 0.19537744532303283 0.8397551180145778 0.0
C9 C9 0.5105121189343302 0.2963508735434899 0.8695518581084778 0.0
C7 C7 0.6902252600338983 0.007687031276455278 0.33902708722523156 0.0
C9 C9 0.8287803679867154 -0.014121389592022048 0.3484155160684362 0.0
C7 C7 0.17244659667527296 0.47910644747121456 0.8352980612455109 0.0
C9 C9 0.30730377117608404 0.5075443605252861 0.8638283970872532 0.0
C7 C7 0.31325301924369137 0.010703595722492786 0.32324012317713463 0.0
C9 C9 0.22637040580791237 0.025398940749009107 0.33412714650282865 0.0
C7 C7 0.8252923373760614 0.49188325629680474 0.8559300708121667 0.0
C9 C9 0.6983732855877935 0.493734527134505 0.8955123150847559 0.0
C7 C7 0.020497900980713704 0.2931003525340345 0.6750080260896274 0.0
C9 C9 0.005695911794666733 0.21686320546496657 0.6367355362755326 0.0
C7 C7 0.4747095034186817 0.7857870894737986 0.11902257712573328 0.0
C9 C9 0.5101508955240299 0.701544877108457 0.17165961335198482 0.0
C7 C7 -0.022363435598071885 0.715216890226606 0.6467908151883394 0.0
C9 C9 0.005402794659524732 0.7800012553145994 0.6498199082599466 0.0
C7 C7 0.5031708777539691 0.21517916150424443 0.1616439474718343 0.0
C9 C9 0.5297734318203201 0.3071707786494318 0.15075024143892948 0.0
C7 C7 0.29753941030763437 -0.020201494257691577 0.6370662724163746 0.0
C9 C9 0.20132966737007787 -0.006800829205760248 0.6596402856656729 0.0
C7 C7 0.8003186319750905 0.5002747370365302 0.09590695914726032 0.0
C9 C9 0.7000352345084969 0.471698766266209 0.15368927858167272 0.0
C7 C7 0.6840227424198619 0.008484999887821709 0.6667863888012672 0.0
C9 C9 0.8125584613869037 -0.004226477180714575 0.6664466081399061 0.0
C7 C7 0.20584191506208246 0.5060434753590424 0.1855511733896913 0.0
C9 C9 0.2785555829015533 0.5046726415616284 0.1421762572695415 0.0
C5 C5 0.0041333068599435936 0.4561896938511289 0.4895047913002215 0.0
C8 C8 0.009005683738033747 0.3506243800847008 0.542281837193183 0.0
C5 C5 0.5036739585223001 0.9471974905346409 0.019876173085055602 0.0
C5 C5 0.5058222669499308 0.8254023414929286 0.007955468835064036 0.0
C5 C5 -0.010470470889966197 0.5465699499289368 0.5097379312943329 0.0
C8 C8 0.008618370645830221 0.6392735572455627 0.48690324602919 0.0
C5 C5 0.4694164377320352 0.0662193531801918 -0.017262416299846994 0.0
C5 C5 0.516657309074866 0.13653596659749578 0.019443724963112724 0.0
C5 C5 0.5723919074075955 -0.016713270351421335 0.46158718838419616 0.0
C8 C8 0.6443985967818973 0.0010066374999958176 0.518006121246154 0.0
C5 C5 0.055383390159661455 0.49175256390820227 0.023250293067667186 0.0
C8 C8 0.15147047497987137 0.4898268053960474 0.02103089565099224 0.0
C5 C5 0.44682600644563225 -0.038842979803613835 0.4827841055058377 0.0
C8 C8 0.34131462676040314 -0.008722324057681898 0.49882231842251823 0.0
C5 C5 0.9668117723663691 0.4945636075499608 0.008700817011988757 0.0
C8 C8 0.8442651780984901 0.5052806708018213 0.0520368503484411 0.0
H H 0.019847096583163366 0.3376728911759082 0.2806902238657243 0.0
H H -0.02700579916174047 0.1357773617858956 0.29586712709480767 0.0
H H 0.49585412003892715 0.8270187192753833 0.7910533280343374 0.0
H H 0.4880912186286819 0.6578826554886443 0.7458493093135135 0.0
H H -0.004159439608096611 0.6798057744689763 0.2316335931716747 0.0
H H 0.00733895729588059 0.8294295625231994 0.2546474505855941 0.0
H H 0.46603917844114434 0.15760744532303284 0.7212751180145777 0.0
H H 0.5105121189343302 0.33942087354348993 0.7563218581084776 0.0
H H 0.6524552600338982 0.0076870312764552775 0.22054708722523153 0.0
H H 0.8718503679867154 -0.014121389592022048 0.23518551606843618 0.0
H H 0.13467659667527296 0.4791064474712146 0.7168180612455108 0.0
H H 0.35037377117608404 0.5075443605252861 0.7505983970872532 0.0
H H 0.35102301924369134 0.010703595722492788 0.20476012317713463 0.0
H H 0.18330040580791238 0.025398940749009107 0.2208971465028286 0.0
H H 0.8630623373760614 0.4918832562968048 0.7374500708121665 0.0
H H 0.6553032855877935 0.493734527134505 0.7822823150847558 0.0
H H 0.020497900980713704 0.33087035253403446 0.7934880260896274 0.0
H H 0.005695911794666734 0.17379320546496657 0.7499655362755326 0.0
H H 0.4747095034186817 0.8235570894737987 0.23750257712573325 0.0
H H 0.5101508955240299 0.658474877108457 0.28488961335198487 0.0
H H -0.022363435598071878 0.6774468902266059 0.7652708151883394 0.0
H H 0.005402794659524732 0.8230712553145995 0.7630499082599467 0.0
H H 0.5031708777539691 0.17740916150424443 0.2801239474718343 0.0
H H 0.5297734318203201 0.3502407786494318 0.2639802414389295 0.0
H H 0.33530941030763434 -0.020201494257691573 0.7555462724163746 0.0
H H 0.15825966737007788 -0.006800829205760247 0.7728702856656731 0.0
H H 0.8380886319750905 0.5002747370365302 0.2143869591472603 0.0
H H 0.6569652345084969 0.471698766266209 0.26691927858167275 0.0
H H 0.6462527424198619 0.00848499988782171 0.7852663888012673 0.0
H H 0.8556284613869038 -0.004226477180714575 0.7796766081399061 0.0
H H 0.16807191506208247 0.5060434753590424 0.3040311733896913 0.0
H H 0.32162558290155324 0.5046726415616284 0.2554062572695415 0.0
Cu Cu -0.004888932723387131 0.018670665807522257 0.5044032836014843 0.0
Cu Cu 0.5037163466138151 0.5160647352073513 0.005807883472892306 0.0
Si Si 0.01037012499950341 0.017866812236290493 0.0008221543230846041 0.0
Si Si 0.48768952715334307 0.49450658270577075 0.4891434251289359 0.0
N N -0.00033451817156773166 0.13946664168898604 0.5287325217004819 0.0
N N 0.5112932714742188 0.656036539433283 0.04646423814819365 0.0
N N -0.0023294269640570307 0.8404494091253935 0.4783761825157762 0.0
N N 0.49346438094350736 0.3593949803286825 0.02767537873727231 0.0
N N 0.8236147809979893 -0.005290698815602161 0.5251795652269112 0.0
N N 0.3610654457556068 0.48011691206650037 -0.013382676878556729 0.0
N N 0.15370647487797817 0.03794498205904692 0.5242261109639431 0.0
N N 0.6404586196796452 0.5139798008994461 -0.014848342435346391 0.0
F3 F3 -0.0069677069175182885 -0.013168977028714607 0.8428800339532215 0.0
F3 F3 0.5170017057019695 0.5183638992877301 0.2709537556234968 0.0
F3 F3 0.0005044821553987664 -0.0007135632810234626 0.18552118354426428 0.0
F3 F3 0.5221043752076293 0.48567685276937456 0.7474133077109238 0.0
F F 0.5688761965430098 0.5868906489781447 0.5126263602622504 0.0
F F 0.5940918340820734 0.42257018501159127 0.5302447928617036 0.0
F F 0.4104297053854065 0.5871366968884014 0.47659866853381605 0.0
F F 0.3885340083581848 0.40090115782844193 0.5055918459055608 0.0
F F 0.08045304068571993 0.07680495635692608 0.031747644964552985 0.0
F F 0.9230460979682844 0.9063136793553366 0.05529913095178548 0.0
F F 0.906513663662698 0.08053175840123121 0.029693582995884944 0.0
F F 0.07860332501674375 0.9210407455740908 -0.0029981012576769674 0.0
