_cell_length_a 20.4364
_cell_length_b 9.005017
_cell_length_c 16.6723
_cell_angle_alpha 90.0
_cell_angle_beta 110.2303
_cell_angle_gamma 90.0
_symmetry_space_group_name_H-M         'P 1'
_symmetry_Int_Tables_number            1
loop_
_symmetry_equiv_pos_as_xyz
   'x, y, z'
                         
loop_
_atom_site_label
_atom_site_type_symbol
_atom_site_fract_x 
_atom_site_fract_y
_atom_site_fract_z
_atom_site_charge
Zn Zn 0.14998997026805067 0.3294947370462555 0.26627470705601924 0.0
Zn Zn 0.015122191238029065 0.2309000199889287 0.26417006648258573 0.0
O O 0.04899339255094731 0.12378658030507105 0.34075920677824184 0.0
O O 0.05635714305268643 0.3355204713980472 0.19612280049399347 0.0
O O 0.16973198442737775 0.25173972723148713 0.39182947563036363 0.0
N N 0.26414112618860613 0.00694982654248505 0.682925598854613 0.0
N N 0.19849512735276553 -0.14052599668709484 0.7201429384062297 0.0
C C 0.19991208612761197 0.10586530335600224 0.5445700876737669 0.0
H H 0.232382086127612 0.1727853033560022 0.5350300876737669 0.0
C C 0.12469319602424452 0.13286518215637877 0.40719291750810976 0.0
C C 0.13258183919317945 0.04763237791552372 0.4599781088799937 0.0
C C 0.09929576062140497 -0.12437468375258237 0.5624749626932652 0.0
H H 0.06785576062140496 -0.1949946837525824 0.5713349626932652 0.0
C C 0.20447692796375294 0.034824486162375115 0.6285380114457567 0.0
C C 0.2162807407805925 -0.04786559856194344 0.7459652344365185 0.0
C C 0.16775476834290934 -0.03478132370888119 0.62190147247687 0.0
C C 0.08226094475583542 -0.07352439503417008 0.5043914615876236 0.0
H H 0.039930944755835425 -0.09454439503417006 0.4590514615876236 0.0
O O 0.3462146685843127 0.0425638696348141 0.8708624088515682 0.0
H H 0.32136466858431273 0.1015738696348141 0.8868224088515683 0.0
C C 0.3101658243393449 -0.04658637482927728 0.8572947440973869 0.0
H H 0.2864058243393449 -0.08887537482927726 0.8954347440973869 0.0
C C 0.4171086265967033 -0.20919552148451573 0.8804829696738397 0.0
H H 0.06696526301045534 0.11104920734741532 0.06392312623787562 0.0
H H 0.06696526301045534 0.11104920734741532 0.06392312623787562 0.0
H H 0.4016286265967033 -0.30457752148451567 0.8518729696738397 0.0
H H 0.057327143052686436 0.36720047139804723 0.16268280049399347 0.0
Zn Zn -0.16122878854338055 0.34515530121904475 0.22381076994923574 0.0
O O -0.05586544950687962 0.1407171664203808 0.17089971899317594 0.0
O O -0.08419365891623092 0.3051342776243931 0.26398434160735657 0.0
O O -0.16228296694663685 0.23148012064864695 0.12025165166350102 0.0
N N -0.24353527630832927 0.04918061540468441 -0.18683925138846139 0.0
N N -0.19404394900517144 -0.13738573386627867 -0.21967449323865 0.0
C C -0.19484295608457702 0.14071081347527606 -0.051555222903659555 0.0
H H -0.227312956084577 0.20763081347527604 -0.04201522290365956 0.0
C C -0.1283525714219407 0.1635581010553955 0.1011025737531574 0.0
C C -0.1516468612071715 0.08802493372940415 0.01844809013940065 0.0
C C -0.08354782235689176 -0.1225812964563984 -0.0509372307678604 0.0
H H -0.05210782235689175 -0.1932012964563984 -0.05979723076786038 0.0
C C -0.21836167465781886 -0.027038250346203545 -0.10274966290173905 0.0
C C -0.2617190761831309 -0.04606284233997446 -0.2584768674033149 0.0
C C -0.18380322517516084 -0.11933775983810713 -0.13642721721263726 0.0
C C -0.07878612424827577 -0.09906493605682855 0.017684827358626073 0.0
H H -0.036456124248275774 -0.12008493605682857 0.06302482735862606 0.0
O O -0.2952547748295291 -0.0470010474182003 -0.381979483803852 0.0
H H -0.27040477482952907 0.012008952581799707 -0.39793948380385197 0.0
C C -0.3029517803850634 -0.10649464600837998 -0.3533949846172517 0.0
H H -0.27919178038506337 -0.14878364600837998 -0.3915349846172516 0.0
C C -0.3695652726971079 -0.19159998035826278 -0.3353187823376432 0.0
H H 0.06696526301045534 0.11104920734741532 0.06392312623787562 0.0
H H 0.06696526301045534 0.11104920734741532 0.06392312623787562 0.0
H H -0.35408527269710793 -0.2869819803582628 -0.3067087823376433 0.0
H H -0.08516365891623089 0.3368142776243931 0.2974243416073567 0.0
Zn Zn 0.6709868688043488 0.8329778082276341 0.26890453217970745 0.0
Zn Zn 0.49525533653931286 0.7331518365372022 0.24492989953331915 0.0
O O 0.5539894488068747 0.605001724685802 0.3057286971383311 0.0
O O 0.5642882224512922 0.798505081669274 0.20846099736285845 0.0
O O 0.6407647947240872 0.7591994465351164 0.36163933826641725 0.0
N N 0.7741345147328093 0.564175113849432 0.7015000696652796 0.0
N N 0.6804970462370128 0.3200004823449502 0.7192964186402397 0.0
C C 0.7151539866305777 0.6145639170102588 0.550033514890615 0.0
H H 0.7476239866305778 0.6814839170102589 0.5404935148906151 0.0
C C 0.6094890145981602 0.6387979906390702 0.38992320746994685 0.0
C C 0.6094282015956393 0.560091725582854 0.466350595531658 0.0
C C 0.5723246793746622 0.4055803076652391 0.5550146162326005 0.0
H H 0.5408846793746622 0.3349603076652391 0.5638746162326005 0.0
C C 0.7173020997687249 0.5475448675709543 0.6237824224570657 0.0
C C 0.7535334953949712 0.4342692325884644 0.7429674881577725 0.0
C C 0.6307944826606007 0.3895347338730907 0.6286709139986247 0.0
C C 0.5739169959223724 0.463513696095015 0.48350098518744405 0.0
H H 0.5315869959223725 0.44249369609501493 0.43816098518744406 0.0
O O 0.8592347437971266 0.47104320895367474 0.8714974404208342 0.0
H H 0.8343847437971267 0.5300532089536748 0.8874574404208343 0.0
C C 0.8072679298915462 0.4613746047707524 0.8531589168466355 0.0
H H 0.7835079298915462 0.4190856047707523 0.8912989168466354 0.0
C C 0.9149276245173282 0.21594529910077617 0.866417184496773 0.0
H H 0.06696526301045534 0.11104920734741532 0.06392312623787562 0.0
H H 0.06696526301045534 0.11104920734741532 0.06392312623787562 0.0
H H 0.8994476245173283 0.12056329910077618 0.837807184496773 0.0
H H 0.5652582224512922 0.8301850816692742 0.17502099736285845 0.0
Zn Zn 0.35207498544914145 0.8051889658287325 0.23643049570103583 0.0
O O 0.4464527626926375 0.6867613035400221 0.19166616846277326 0.0
O O 0.4438783689602127 0.8630306512879966 0.24168562621544695 0.0
O O 0.34275989371980825 0.7269371809499255 0.12375925464253504 0.0
N N 0.2194317242222052 0.5934464568275197 -0.19077516393307672 0.0
N N 0.3266592114464544 0.33541302570302356 -0.21607526244065645 0.0
C C 0.308736203295599 0.672885373036726 -0.05448065422198428 0.0
H H 0.2762662032955989 0.7398053730367261 -0.04494065422198429 0.0
C C 0.3774809040514873 0.6009082265538456 0.09974150820351003 0.0
C C 0.36373470227007354 0.5088113343663306 0.013668446151028794 0.0
C C 0.4077205138549523 0.37961207193474683 -0.04727401426878954 0.0
H H 0.4391605138549522 0.30899207193474676 -0.05613401426878952 0.0
C C 0.2737473087953526 0.5390597371082759 -0.14235211959205119 0.0
C C 0.2320083725555773 0.4424720897706535 -0.2402543692609099 0.0
C C 0.3210627183401934 0.3914631397572708 -0.11121960192133988 0.0
C C 0.4149843236670071 0.3672336406589851 0.0066764845475491205 0.0
H H 0.4573143236670071 0.3462136406589851 0.05201648454754911 0.0
O O 0.15903945189019636 0.6145089151340918 -0.3821175267663462 0.0
H H 0.18388945189019645 0.6735189151340918 -0.39807752676634617 0.0
C C 0.19855432878312768 0.3867402473615158 -0.3349416308614427 0.0
H H 0.22231432878312765 0.3444512473615158 -0.37308163086144264 0.0
C C 0.15714807803683434 0.2824549664228392 -0.33856896115036345 0.0
H H 0.06696526301045534 0.11104920734741532 0.06392312623787562 0.0
H H 0.06696526301045534 0.11104920734741532 0.06392312623787562 0.0
H H 0.17262807803683436 0.1870729664228392 -0.30995896115036353 0.0
H H 0.4429083689602127 0.8947106512879967 0.27512562621544695 0.0
Zn Zn -0.18064620752188296 -0.3504084175770458 -0.2725285306522446 0.0
Zn Zn -0.0023405367468691102 -0.24020191008496816 -0.26706756973775503 0.0
O O -0.06386876739326902 -0.10197473592077365 -0.36160154315314386 0.0
O O -0.05433397664541369 -0.4063337384411827 -0.2390327519864448 0.0
O O -0.154308208931551 -0.2305064084860196 -0.37996442844111405 0.0
N N -0.25953919441644985 -0.03925271161497179 -0.6739607149767958 0.0
N N -0.20424787328725233 0.11827523496024663 -0.7070593566307347 0.0
C C -0.1957963509537562 -0.04801551364110067 -0.5422966797974685 0.0
H H -0.22826635095375622 -0.11493551364110065 -0.5327566797974687 0.0
C C -0.09980564624558731 -0.10784601034199252 -0.3756996135477108 0.0
C C -0.12736261192902432 -0.07462250848928345 -0.4736600652447271 0.0
C C -0.08099536740867483 0.06488777561910494 -0.5622663312374238 0.0
H H -0.049555367408674805 0.13550777561910496 -0.5711263312374237 0.0
C C -0.1931222896880963 -0.032531063082704294 -0.6047704504300494 0.0
C C -0.2558683013169417 0.08260182606136324 -0.7274598512075602 0.0
C C -0.14743628093880445 0.06602338432790407 -0.6141846241875885 0.0
C C -0.08630215576662913 0.08757013429752239 -0.4814330279210516 0.0
H H -0.04397215576662914 0.10859013429752239 -0.4360930279210516 0.0
O O -0.3232737597307569 -0.08296345205485182 -0.8438564922149615 0.0
H H -0.2984237597307569 -0.14197345205485182 -0.8598164922149616 0.0
C C -0.30409821025756034 0.07324306576075885 -0.8227381610034311 0.0
H H -0.28033821025756034 0.11553206576075883 -0.8608781610034311 0.0
C C -0.369135231573368 0.27512852982606684 -0.8133337389130394 0.0
H H 0.06696526301045534 0.11104920734741532 0.06392312623787562 0.0
H H 0.06696526301045534 0.11104920734741532 0.06392312623787562 0.0
H H -0.353655231573368 0.3705105298260668 -0.7847237389130395 0.0
H H -0.05530397664541369 -0.4380137384411827 -0.20559275198644483 0.0
Zn Zn 0.1600525708781339 -0.3244142685736973 -0.22229152122455037 0.0
O O 0.046461860248298716 -0.11241892119926172 -0.18036185218544745 0.0
O O 0.08050149491390345 -0.3818762592637851 -0.2916333718263405 0.0
O O 0.15481415492546916 -0.20845801773455508 -0.12694775467217392 0.0
N N 0.28525072677890717 -0.02935546525525699 0.20014709887175522 0.0
N N 0.19613936305791374 0.11843401946582141 0.2188239493530778 0.0
C C 0.2001618369754986 -0.11292866496184864 0.03409558895296011 0.0
H H 0.23263183697549858 -0.17984866496184865 0.024555588952960113 0.0
C C 0.12144048361472093 -0.14213568809860866 -0.11919976416587529 0.0
C C 0.12291040384482142 -0.047730227104652356 -0.04372009387241914 0.0
C C 0.09705986447576236 0.1350320534069189 0.0653553543004443 0.0
H H 0.06561986447576233 0.2056520534069189 0.07421535430044429 0.0
C C 0.20743255352885615 -0.002482632340211855 0.10236841000554897 0.0
C C 0.25279103342815995 0.03561513283589296 0.2635787367647478 0.0
C C 0.17486175951799016 0.13568813126245954 0.14736876698199783 0.0
C C 0.060778675766078975 0.08495384666205762 -0.018380135499965467 0.0
H H 0.018448675766078972 0.10597384666205761 -0.06372013549996546 0.0
O O 0.3397594555610281 -0.055366663721866514 0.34442256252929476 0.0
H H 0.31490945556102806 -0.11437666372186653 0.3603825625292948 0.0
C C 0.31335913330342813 0.025720431471541055 0.3500727332175929 0.0
H H 0.2895991333034282 0.06800943147154104 0.38821273321759286 0.0
C C 0.39700317418876 0.14771086606148742 0.34463608225580256 0.0
H H 0.06696526301045534 0.11104920734741532 0.06392312623787562 0.0
H H 0.06696526301045534 0.11104920734741532 0.06392312623787562 0.0
H H 0.38152317418876 0.24309286606148742 0.3160260822558027 0.0
H H 0.08147149491390343 -0.4135562592637851 -0.32507337182634055 0.0
Zn Zn 0.31742912392998207 0.20560798977807943 -0.2769712209675715 0.0
Zn Zn 0.5131048033248184 0.20988627731540643 -0.2519410047715007 0.0
O O 0.4389581075128576 0.3908189639062422 -0.3543347125760572 0.0
O O 0.424759251185056 0.11801699427915993 -0.2279183947116014 0.0
O O 0.33674395596071094 0.2454889421229188 -0.3850373843950947 0.0
N N 0.22522463819329422 0.4564649879284876 -0.6892611483860186 0.0
N N 0.30103788597847064 0.6244320489511501 -0.7099998638989232 0.0
C C 0.2708777365302898 0.4515103970072426 -0.5619339682030398 0.0
H H 0.23840773653028974 0.3845903970072426 -0.5523939682030399 0.0
C C 0.37952058745217326 0.3190019484633135 -0.389107369694155 0.0
C C 0.3611088251698062 0.5211801609794916 -0.49640179466564543 0.0
C C 0.38562980835502786 0.6253575691881867 -0.6053706665061357 0.0
H H 0.4170698083550277 0.6959775691881868 -0.6142306665061357 0.0
C C 0.26621067720211317 0.4826933849480231 -0.635520734223507 0.0
C C 0.23187756202510573 0.5575386606510768 -0.7606356951275416 0.0
C C 0.34288289163268487 0.582905468222668 -0.6452313347996966 0.0
C C 0.4328945836195119 0.6077685350807879 -0.49488224293488425 0.0
H H 0.475224583619512 0.628788535080788 -0.44954224293488426 0.0
O O 0.14934896852116683 0.3867793624253143 -0.8629421548111711 0.0
H H 0.17419896852116684 0.3277693624253142 -0.8789021548111712 0.0
C C 0.19935714816500197 0.5853627151215497 -0.8386708790881398 0.0
H H 0.22311714816500194 0.6276517151215497 -0.8768108790881397 0.0
C C 0.12465572710627831 0.6726338985403194 -0.8374599429076345 0.0
H H 0.06696526301045534 0.11104920734741532 0.06392312623787562 0.0
H H 0.06696526301045534 0.11104920734741532 0.06392312623787562 0.0
H H 0.14013572710627828 0.7680158985403195 -0.8088499429076346 0.0
H H 0.423789251185056 0.08633699427915993 -0.19447839471160142 0.0
Zn Zn 0.6559566848460148 0.2208454495281542 -0.2381794939104035 0.0
O O 0.5544449728718898 0.3779621393110742 -0.19978765216428476 0.0
O O 0.5502926494841492 0.14752767280077828 -0.2746868014779334 0.0
O O 0.6650752181931017 0.2577604818264575 -0.11512149284209475 0.0
N N 0.7428045950261303 0.5162518636109263 0.19684856031368425 0.0
N N 0.6830363331808771 0.634456406884679 0.21848939234988987 0.0
C C 0.6986449424332871 0.4396860658749875 0.051132523259262506 0.0
H H 0.7311149424332871 0.3727660658749875 0.041592523259262514 0.0
C C 0.6329274007982928 0.38956568736563807 -0.09829624954344834 0.0
C C 0.6430337729430855 0.3975860760049337 -0.013406575190748879 0.0
C C 0.613335490643632 0.5996922585993726 0.054279126348488124 0.0
H H 0.581895490643632 0.6703122585993727 0.0631391263484881 0.0
C C 0.7154029766041898 0.4312509231397393 0.1425149090141113 0.0
C C 0.7626312550552601 0.49739037571400213 0.2575502497002349 0.0
C C 0.6647405376369335 0.5247370809672566 0.13317096083195604 0.0
C C 0.5621132983026856 0.5514439252660386 0.011350599548827342 0.0
H H 0.5197832983026857 0.5724639252660385 -0.03398940045117265 0.0
O O 0.833799439360289 0.4172675691700705 0.3876562298211544 0.0
H H 0.8089494393602891 0.35825756917007046 0.4036162298211544 0.0
C C 0.7861561545674204 0.5374366251456177 0.32638722605477133 0.0
H H 0.7623961545674204 0.5797256251456177 0.3645272260547713 0.0
C C 0.915446034912329 0.6567473595396132 0.40208029713032234 0.0
H H 0.06696526301045534 0.11104920734741532 0.06392312623787562 0.0
H H 0.06696526301045534 0.11104920734741532 0.06392312623787562 0.0
H H 0.8999660349123292 0.7521293595396132 0.3734702971303224 0.0
H H 0.5512626494841493 0.11584767280077826 -0.3081268014779334 0.0
