_cell_length_a 20.4364
_cell_length_b 9.005017
_cell_length_c 16.6723
_cell_angle_alpha 90.0
_cell_angle_beta 110.2303
_cell_angle_gamma 90.0
_symmetry_space_group_name_H-M         'P 1'
_symmetry_Int_Tables_number            1
loop_
_symmetry_equiv_pos_as_xyz
   'x, y, z'
                         
loop_
_atom_site_label
_atom_site_type_symbol
_atom_site_fract_x 
_atom_site_fract_y
_atom_site_fract_z
_atom_site_charge
Zn Zn 0.16558198017790643 0.2682764493644783 0.2528943369673071 0.0
Zn Zn 0.013169823678254722 0.23496165548209408 0.2677340473305752 0.0
O O 0.043327311005040475 0.13593779419272853 0.31263192343084306 0.0
O O 0.05265478453470916 0.317779184271071 0.1835822176717716 0.0
O O 0.15118812095960626 0.2871720461429868 0.36672232119484777 0.0
N N 0.2624391188852717 0.12045536914915535 0.7039401017828328 0.0
N N 0.19031575120628025 -0.11680765584018095 0.7128797004154327 0.0
C C 0.2104167981476613 0.1296809686146925 0.5362303529681206 0.0
H H 0.24288679814766131 0.19660096861469248 0.5266903529681207 0.0
C C 0.11966364985762257 0.13366508576192657 0.39467446954398727 0.0
C C 0.12319584659715013 0.06403460432642706 0.4784314437866217 0.0
C C 0.09075979188206855 -0.062194443404331716 0.5592096449506467 0.0
H H 0.05931979188206855 -0.1328144434043317 0.5680696449506466 0.0
C C 0.21105384290901333 0.014387905961043994 0.6169359740893862 0.0
C C 0.24965253083683478 -0.04330007251670976 0.7372365424956326 0.0
C C 0.14606897625371876 -0.08451162358684422 0.6260970143009613 0.0
C C 0.092214315755388 0.0038534205555655543 0.4882263183162078 0.0
H H 0.049884315755387994 -0.01716657944443443 0.4428863183162078 0.0
O O 0.3089875968816211 0.12185671522642146 0.8812036539027126 0.0
H H 0.28413759688162105 0.18086671522642148 0.8971636539027126 0.0
C C 0.32951271625000295 -0.04971854671856671 0.8253576253077105 0.0
H H 0.30575271625000294 -0.0920075467185667 0.8634976253077105 0.0
C C 0.3744672578116882 -0.14983788400633224 0.8333476327722847 0.0
H H 0.06696526301045534 0.11104920734741532 0.06392312623787562 0.0
H H 0.06696526301045534 0.11104920734741532 0.06392312623787562 0.0
H H 0.35898725781168817 -0.2452198840063322 0.8047376327722848 0.0
H H 0.05362478453470917 0.34945918427107103 0.1501422176717716 0.0
Zn Zn -0.15391065868002743 0.29960431225980355 0.24641694119214827 0.0
O O -0.04255574876588209 0.07333651647592496 0.20129638523273485 0.0
O O -0.07598258436035817 0.4003504904568815 0.30269814273219986 0.0
O O -0.15283118840283658 0.20102745556005946 0.12066838578969313 0.0
N N -0.26103609747759127 -0.02156023782397087 -0.18137368519064825 0.0
N N -0.19487948939122585 -0.15854441979845907 -0.21772150728884523 0.0
C C -0.19007860277586314 0.1566161094783339 -0.056797002240865736 0.0
H H -0.2225486027758631 0.22353610947833388 -0.047257002240865736 0.0
C C -0.11669194825103638 0.11960662179473189 0.12519546841147264 0.0
C C -0.13432647277161372 0.015804403887806406 0.01192521980601306 0.0
C C -0.1193045951378436 -0.08314378000664477 -0.07796407698608149 0.0
H H -0.08786459513784362 -0.15376378000664478 -0.08682407698608148 0.0
C C -0.19655492914604736 0.02595287487444012 -0.11235063045967877 0.0
C C -0.29077896083571686 0.05298754846690511 -0.264532298540392 0.0
C C -0.17585196605472853 -0.08653317689518486 -0.13656542017705903 0.0
C C -0.09582071335446801 -0.06465628961709656 0.011731546298565437 0.0
H H -0.053490713354468006 -0.08567628961709656 0.05707154629856543 0.0
O O -0.30193148825860155 0.05376958055546444 -0.3429609223522627 0.0
H H -0.2770814882586015 0.11277958055546444 -0.3589209223522627 0.0
C C -0.3090427311286123 -0.07455151103554182 -0.35838312279088685 0.0
H H -0.2852827311286123 -0.11684051103554181 -0.3965231227908868 0.0
C C -0.40109849055949276 -0.2200135808244673 -0.3989606713816986 0.0
H H 0.06696526301045534 0.11104920734741532 0.06392312623787562 0.0
H H 0.06696526301045534 0.11104920734741532 0.06392312623787562 0.0
H H -0.38561849055949277 -0.31539558082446734 -0.37035067138169875 0.0
H H -0.07695258436035815 0.43203049045688147 0.33613814273219994 0.0
Zn Zn 0.6588256774022281 0.8032355899668934 0.2698408351077421 0.0
Zn Zn 0.4907172321683072 0.7249165548538248 0.2523821699369841 0.0
O O 0.5436629324826984 0.5640097011232988 0.3225376846938092 0.0
O O 0.5773268145891612 0.8654500872919314 0.24944118939755652 0.0
O O 0.6545111416245216 0.7208974151409591 0.37979602785264605 0.0
N N 0.7605870480797775 0.5293019354601859 0.7017665554531284 0.0
N N 0.6888722583331 0.35607721044146196 0.7040818120995024 0.0
C C 0.701190733772861 0.594181800795958 0.5521032229917815 0.0
H H 0.7336607337728611 0.661101800795958 0.5425632229917816 0.0
C C 0.6151823366221795 0.6207680511439013 0.4016814815036487 0.0
C C 0.6279970084813441 0.4985584854100226 0.4719395377539841 0.0
C C 0.5897141356488008 0.335288391336715 0.5409942834460324 0.0
H H 0.5582741356488009 0.26466839133671494 0.5498542834460324 0.0
C C 0.7027379484012954 0.5142712381574468 0.6107020712447002 0.0
C C 0.7522928621105128 0.43112800408779317 0.7386938680317906 0.0
C C 0.6630200670764405 0.386959315130749 0.6225716406259099 0.0
C C 0.5820409761398402 0.45364493311901055 0.4934049480924977 0.0
H H 0.5397109761398402 0.43262493311901046 0.4480649480924977 0.0
O O 0.8314034216059465 0.6065619099473843 0.8602582448622673 0.0
H H 0.8065534216059465 0.6655719099473844 0.8762182448622674 0.0
C C 0.797149692122965 0.43176598886498213 0.8466598890223741 0.0
H H 0.7733896921229652 0.3894769888649821 0.884799889022374 0.0
C C 0.8334197586536419 0.3414551587397488 0.8267174717317305 0.0
H H 0.06696526301045534 0.11104920734741532 0.06392312623787562 0.0
H H 0.06696526301045534 0.11104920734741532 0.06392312623787562 0.0
H H 0.817939758653642 0.24607315873974878 0.7981074717317306 0.0
H H 0.5782968145891613 0.8971300872919316 0.21600118939755655 0.0
Zn Zn 0.33539352454229304 0.7825632905090965 0.24707283135782776 0.0
O O 0.4449350699985698 0.6351264806864587 0.1587579485322163 0.0
O O 0.43086178419441745 0.8520076855574823 0.27080698202860465 0.0
O O 0.32310893300323 0.7235241629124278 0.11329436933228776 0.0
N N 0.23822907659658196 0.561282451928682 -0.19750233860623312 0.0
N N 0.3484047392048746 0.4142395530794126 -0.20518393522003578 0.0
C C 0.31227185176361555 0.5900159293379255 -0.04402894894217577 0.0
H H 0.2798018517636155 0.6569359293379256 -0.03448894894217578 0.0
C C 0.3845081601831749 0.5979401942154714 0.100649910172836 0.0
C C 0.39041889619390885 0.5286131773481842 0.03413870249554183 0.0
C C 0.4017556845067447 0.3894420653440325 -0.08673024155449083 0.0
H H 0.43319568450674456 0.31882206534403246 -0.0955902415544908 0.0
C C 0.2821248437648051 0.5072719872812554 -0.12036513940537115 0.0
C C 0.24643569648500183 0.44717172466400185 -0.26568761304196936 0.0
C C 0.35589249348545615 0.4587508485694828 -0.11868931372315783 0.0
C C 0.41420924835360273 0.5094317306663497 0.008893499172286757 0.0
H H 0.45653924835360277 0.48841173066634963 0.054233499172286745 0.0
O O 0.17441204248305975 0.5693419859085498 -0.39887973393828546 0.0
H H 0.19926204248305981 0.6283519859085498 -0.4148397339382855 0.0
C C 0.24581497487329546 0.33748540015224815 -0.33128767398822345 0.0
H H 0.2695749748732954 0.29519640015224813 -0.3694276739882234 0.0
C C 0.12571472038210352 0.2735918791956667 -0.34198158549056856 0.0
H H 0.06696526301045534 0.11104920734741532 0.06392312623787562 0.0
H H 0.06696526301045534 0.11104920734741532 0.06392312623787562 0.0
H H 0.1411947203821035 0.1782098791956667 -0.31337158549056865 0.0
H H 0.4298917841944174 0.8836876855574824 0.3042469820286047 0.0
Zn Zn -0.1590066164679727 -0.32422016418884403 -0.2689480477575221 0.0
Zn Zn 0.0024457370386445965 -0.220907854223151 -0.2501879523177965 0.0
O O -0.07414510690786434 -0.10450122189855586 -0.3281856731683609 0.0
O O -0.069895285895643 -0.4058530952703511 -0.2471808995605333 0.0
O O -0.1578669988940888 -0.22502269613943265 -0.39266196345668913 0.0
N N -0.24221547767701826 -0.05785821442588062 -0.7081752226192972 0.0
N N -0.18894058230023106 0.0952727524233285 -0.7089181258861803 0.0
C C -0.20463995998842172 -0.10447853393864831 -0.5622253554518988 0.0
H H -0.23710995998842174 -0.17139853393864826 -0.5526853554518989 0.0
C C -0.1041048903899474 -0.10393729627049941 -0.3756166335076493 0.0
C C -0.12753299866400733 -0.0020534384060759687 -0.4642776576378588 0.0
C C -0.09424713340361314 0.10651198134400797 -0.5610475315367186 0.0
H H -0.06280713340361313 0.17713198134400798 -0.5699075315367186 0.0
C C -0.22831617028190512 -0.00816662302675895 -0.6280867045982571 0.0
C C -0.27638503874192566 0.08483975586105677 -0.7357875121235786 0.0
C C -0.16272269379032875 0.05729615220808046 -0.6508057222908279 0.0
C C -0.08874225349158327 0.06983042328692367 -0.5116497062674974 0.0
H H -0.046412253491583275 0.09085042328692365 -0.46630970626749746 0.0
O O -0.37754114028211194 -0.011303855736509006 -0.8984186201426055 0.0
H H -0.3526911402821119 -0.07031385573650901 -0.9143786201426055 0.0
C C -0.2878855172701694 0.09544886907046121 -0.8358213818910143 0.0
H H -0.2641255172701694 0.1377378690704612 -0.8739613818910142 0.0
C C -0.34470256733895016 0.24699251842661737 -0.826355423657582 0.0
H H 0.06696526301045534 0.11104920734741532 0.06392312623787562 0.0
H H 0.06696526301045534 0.11104920734741532 0.06392312623787562 0.0
H H -0.32922256733895017 0.3423745184266173 -0.797745423657582 0.0
H H -0.07086528589564302 -0.43753309527035106 -0.2137408995605333 0.0
Zn Zn 0.1556737084890484 -0.31205338944121913 -0.23047303932243496 0.0
O O 0.05321534072134811 -0.12329425398967572 -0.15110643933738946 0.0
O O 0.07904577850099255 -0.32138676611772765 -0.26482165237839067 0.0
O O 0.17577962813812606 -0.26573130547226714 -0.15328721188497907 0.0
N N 0.25366188902360526 -0.03496197777336293 0.17703884271774586 0.0
N N 0.18780722498875047 0.08863234843675143 0.1958648018835257 0.0
C C 0.16518913707054486 -0.043271498724370985 0.021237046956558436 0.0
H H 0.19765913707054486 -0.11019149872437096 0.011697046956558444 0.0
C C 0.12486717006470621 -0.1607167111514548 -0.10962730448342686 0.0
C C 0.14207129668128232 -0.003135241659285161 -0.04746754131218698 0.0
C C 0.06283432758233949 0.11289697149134173 0.04420911349708182 0.0
H H 0.031394327582339496 0.18351697149134172 0.0530691134970818 0.0
C C 0.21083620439967535 -0.014709253346694177 0.11669994936606383 0.0
C C 0.2321621435160267 0.058006996069002066 0.24863544032740012 0.0
C C 0.15212997030295503 0.08932514489420805 0.13694473043845795 0.0
C C 0.09239628511127755 0.07823847142635071 -0.030350301678388227 0.0
H H 0.05006628511127754 0.09925847142635069 -0.07569030167838822 0.0
O O 0.3125091800322554 -0.011166973143567186 0.3759767420465598 0.0
H H 0.2876591800322554 -0.07017697314356719 0.39193674204655976 0.0
C C 0.2984086376570818 0.08422533769960305 0.3493522398264116 0.0
H H 0.27464863765708175 0.12651433769960302 0.38749223982641157 0.0
C C 0.41982269363741376 0.15848279689900147 0.4029445563897916 0.0
H H 0.06696526301045534 0.11104920734741532 0.06392312623787562 0.0
H H 0.06696526301045534 0.11104920734741532 0.06392312623787562 0.0
H H 0.40434269363741376 0.2538647968990015 0.37433455638979174 0.0
H H 0.08001577850099255 -0.35306676611772764 -0.2982616523783907 0.0
Zn Zn 0.3160042809058563 0.21954863424872967 -0.30143540015762726 0.0
Zn Zn 0.4895691499721433 0.23780100425089232 -0.25478475873182604 0.0
O O 0.44982394377928087 0.4104298321711814 -0.32739858621841067 0.0
O O 0.43498669962410813 0.06100595608379399 -0.2632366597319198 0.0
O O 0.3454333553351929 0.2732054535368518 -0.3696727249801751 0.0
N N 0.2506680028363378 0.4110692570001096 -0.6844645813336249 0.0
N N 0.3258202487033922 0.5916690893327717 -0.7109443659483987 0.0
C C 0.3064450020583934 0.4192267401142176 -0.5250494542645622 0.0
H H 0.27397500205839337 0.35230674011421764 -0.5155094542645623 0.0
C C 0.3923048495091681 0.3926891707702319 -0.4112189554477034 0.0
C C 0.36483193219309035 0.44013586966090285 -0.4675905071176579 0.0
C C 0.3915306684568185 0.6267638706955239 -0.5920000316210008 0.0
H H 0.42297066845681836 0.697383870695524 -0.6008600316210007 0.0
C C 0.3014675957176401 0.4519580942046523 -0.6350260778698716 0.0
C C 0.2321830781324937 0.5981861093457994 -0.7594235836572218 0.0
C C 0.33807489586233713 0.566792110010948 -0.6289727882290833 0.0
C C 0.40099086558391106 0.5399274258745691 -0.4864352357923233 0.0
H H 0.44332086558391115 0.5609474258745691 -0.4410952357923233 0.0
O O 0.15102870348371605 0.4336597483452659 -0.902903007027694 0.0
H H 0.17587870348371604 0.3746497483452659 -0.918863007027694 0.0
C C 0.22242728865483224 0.594653875457685 -0.8058508298462889 0.0
H H 0.24618728865483222 0.636942875457685 -0.8439908298462888 0.0
C C 0.11330974262497868 0.6507333389124166 -0.847263500863846 0.0
H H 0.06696526301045534 0.11104920734741532 0.06392312623787562 0.0
H H 0.06696526301045534 0.11104920734741532 0.06392312623787562 0.0
H H 0.12878974262497872 0.7461153389124167 -0.8186535008638461 0.0
H H 0.4340166996241082 0.029325956083793993 -0.22979665973191984 0.0
Zn Zn 0.6668139259824669 0.2279009852443853 -0.23207898189870663 0.0
O O 0.5544057420477554 0.35011571060388796 -0.1441904689287407 0.0
O O 0.557878887167929 0.1896366659888336 -0.28172398778426766 0.0
O O 0.6583794544643351 0.2917419781692654 -0.1154173548449749 0.0
N N 0.7541267533081878 0.5219201611251527 0.17491467977469782 0.0
N N 0.704174966125475 0.6059035294020227 0.19831753589730527 0.0
C C 0.6811090511138783 0.363736226530652 0.020458663532962273 0.0
H H 0.7135790511138783 0.29681622653065204 0.010918663532962282 0.0
C C 0.612695930930778 0.3484963466375849 -0.11269585654054524 0.0
C C 0.6537904867276328 0.39535548465919146 -3.879612177555665e-05 0.0
C C 0.6121101506709143 0.6228441436945338 0.06677283942410826 0.0
H H 0.5806701506709142 0.6934641436945339 0.07563283942410826 0.0
C C 0.7248429998958731 0.4735976364958684 0.11106366556039693 0.0
C C 0.759744337519787 0.49562949368970816 0.24878816602562714 0.0
C C 0.6562120970144573 0.5617383073420749 0.13921565896029672 0.0
C C 0.5813882902673684 0.5258301714060354 -0.03691487518117922 0.0
H H 0.5390582902673684 0.5468501714060353 -0.08225487518117922 0.0
O O 0.8532396249236956 0.4033763674154856 0.3725349220981629 0.0
H H 0.8283896249236957 0.34436636741548554 0.3884949220981629 0.0
C C 0.8119625711629396 0.6328463820165007 0.3458260238730156 0.0
H H 0.7882025711629396 0.6751353820165006 0.38396602387301554 0.0
C C 0.8636447453276734 0.5935004421977309 0.3351630634798822 0.0
H H 0.06696526301045534 0.11104920734741532 0.06392312623787562 0.0
H H 0.06696526301045534 0.11104920734741532 0.06392312623787562 0.0
H H 0.8481647453276735 0.6888824421977311 0.3065530634798823 0.0
H H 0.558848887167929 0.15795666598883362 -0.31516398778426774 0.0
