_cell_length_a 20.4364
_cell_length_b 9.005017
_cell_length_c 16.6723
_cell_angle_alpha 90.0
_cell_angle_beta 110.2303
_cell_angle_gamma 90.0
_symmetry_space_group_name_H-M         'P 1'
_symmetry_Int_Tables_number            1
loop_
_symmetry_equiv_pos_as_xyz
   'x, y, z'
                         
loop_
_atom_site_label
_atom_site_type_symbol
_atom_site_fract_x 
_atom_site_fract_y
_atom_site_fract_z
_atom_site_charge
Zn Zn 0.17852292061046263 0.28368244087803646 0.2540347100484775 0.0
Zn Zn -0.003644918878121116 0.2941696416353806 0.25041425394905165 0.0
O O 0.05721114729495197 0.11324341048188045 0.32082976056265755 0.0
O O 0.058623563024928445 0.40673396620343627 0.228204200455718 0.0
O O 0.1429470133741512 0.28572032514840895 0.3698025658236872 0.0
N N 0.29574961587358856 0.011544960142037491 0.6958916224672516 0.0
N N 0.18011744940268057 -0.0662545791028791 0.7210048791995478 0.0
C C 0.20153589620355786 0.0831477104677016 0.5196953357699658 0.0
H H 0.2340058962035579 0.15006771046770156 0.510155335769966 0.0
C C 0.11807015985740328 0.2004707069572685 0.3843969459363389 0.0
C C 0.13192374299140905 0.06481546418000265 0.482363504015363 0.0
C C 0.0868550298163235 -0.19226718582704092 0.5493183254819045 0.0
H H 0.05541502981632348 -0.2628871858270409 0.5581783254819045 0.0
C C 0.21204855524768126 0.018599405319813536 0.619352359264089 0.0
C C 0.26176524241922317 -0.06559096695807237 0.7503388049655753 0.0
C C 0.15215969711036864 -0.07734629899861122 0.6395040317908732 0.0
C C 0.08590270467184294 -0.035746691642341455 0.4547805222734588 0.0
H H 0.04357270467184296 -0.05676669164234144 0.4094405222734588 0.0
O O 0.3377589399736094 0.051356368113886455 0.8553410961346644 0.0
H H 0.3129089399736094 0.11036636811388645 0.8713010961346644 0.0
C C 0.2753620145352848 -0.09070134120533463 0.8347488319507881 0.0
H H 0.2516020145352848 -0.13299034120533462 0.872888831950788 0.0
C C 0.3712870714141687 -0.24323764874584686 0.8355905948526183 0.0
H H 0.06696526301045534 0.11104920734741532 0.06392312623787562 0.0
H H 0.06696526301045534 0.11104920734741532 0.06392312623787562 0.0
H H 0.35580707141416873 -0.33861964874584677 0.8069805948526184 0.0
H H 0.05959356302492845 0.43841396620343626 0.194764200455718 0.0
Zn Zn -0.14491637486323647 0.28928895361977186 0.23437607844336505 0.0
O O -0.06053942905962008 0.13243804265135461 0.16803017416848534 0.0
O O -0.06432042775034301 0.3628413729030458 0.3136482244474091 0.0
O O -0.14508135539773886 0.23867727122888505 0.1127876217638409 0.0
N N -0.2588861361349555 0.042203091719389844 -0.20032607464880373 0.0
N N -0.19155430235906246 -0.11594897859932697 -0.22685445316273692 0.0
C C -0.19933969875937274 0.08538184192868269 -0.06497954335572385 0.0
H H -0.2318096987593728 0.15230184192868265 -0.05543954335572385 0.0
C C -0.10661465708622643 0.19257153857931464 0.1320247238155469 0.0
C C -0.13819816704069182 0.038642845495522875 0.016919499711453553 0.0
C C -0.10528628204546371 -0.10329765697084399 -0.05914108524912797 0.0
H H -0.07384628204546372 -0.173917656970844 -0.06800108524912794 0.0
C C -0.1963745554284973 0.015169702707259635 -0.12693983904334163 0.0
C C -0.2434672910409306 -0.058568368968576624 -0.2581921790701612 0.0
C C -0.16692213277119508 -0.08967033627731656 -0.14303539240964297 0.0
C C -0.06909152352626044 -0.04128003741184618 0.009398750074461544 0.0
H H -0.026761523526260437 -0.062300037411846164 0.05473875007446154 0.0
O O -0.30516072818145124 0.05020538231786274 -0.37187458304758364 0.0
H H -0.2803107281814512 0.10921538231786275 -0.3878345830475836 0.0
C C -0.2951967080971404 -0.029234154346527062 -0.30778426256058633 0.0
H H -0.2714367080971404 -0.07152315434652705 -0.3459242625605863 0.0
C C -0.35223412965121803 -0.21098781617215395 -0.3298637029236553 0.0
H H 0.06696526301045534 0.11104920734741532 0.06392312623787562 0.0
H H 0.06696526301045534 0.11104920734741532 0.06392312623787562 0.0
H H -0.33675412965121804 -0.306369816172154 -0.30125370292365544 0.0
H H -0.06529042775034302 0.3945213729030458 0.3470882244474091 0.0
Zn Zn 0.6663693386061883 0.7785073782288182 0.2772709349255913 0.0
Zn Zn 0.5090663188499495 0.7601208148207684 0.25649961872583416 0.0
O O 0.5674753376756286 0.5793520934824341 0.32662838476083367 0.0
O O 0.5718518068074888 0.8467003170440014 0.20642026019479764 0.0
O O 0.6743549125405937 0.6530048007943606 0.3631581374415602 0.0
N N 0.7712491771247814 0.5391840068773118 0.7030450041697579 0.0
N N 0.6976793103522386 0.3415380527496524 0.7116713991674436 0.0
C C 0.7073064321281438 0.5691122975100344 0.5437758840293572 0.0
H H 0.7397764321281439 0.6360322975100345 0.5342358840293573 0.0
C C 0.6026215157850839 0.6217003871571181 0.37851671844918666 0.0
C C 0.6239161511146945 0.5333289935928602 0.47734324312848214 0.0
C C 0.5788357044515581 0.36076012652167727 0.5383551549205452 0.0
H H 0.5473957044515582 0.2901401265216772 0.5472151549205451 0.0
C C 0.6998051853642852 0.5387101101945901 0.6229437812729358 0.0
C C 0.7467470431075294 0.47132063704206734 0.7402595029138106 0.0
C C 0.6575087649647778 0.43672537524018396 0.637560180760366 0.0
C C 0.5883978789545833 0.46822963332709966 0.5010766700238303 0.0
H H 0.5460678789545833 0.44720963332709956 0.45573667002383034 0.0
O O 0.8593269784707855 0.518773555133738 0.8851352334631399 0.0
H H 0.8344769784707856 0.577783555133738 0.90109523346314 0.0
C C 0.7927166524840983 0.4766320973036757 0.8174188441684099 0.0
H H 0.7689566524840983 0.43434309730367565 0.8555588441684099 0.0
C C 0.8476141295065742 0.40425750557894813 0.8348503257963807 0.0
H H 0.06696526301045534 0.11104920734741532 0.06392312623787562 0.0
H H 0.06696526301045534 0.11104920734741532 0.06392312623787562 0.0
H H 0.8321341295065743 0.30887550557894816 0.8062403257963808 0.0
H H 0.572821806807489 0.8783803170440014 0.17298026019479765 0.0
Zn Zn 0.34607588685127894 0.8507093054817835 0.23183611586522535 0.0
O O 0.44596956145930966 0.61343067364173 0.16115014765137148 0.0
O O 0.40498240545142544 0.8116425830073714 0.2779558782152109 0.0
O O 0.3445632651370323 0.7638928362328111 0.11578845206299496 0.0
N N 0.23550660828680237 0.5182940648122312 -0.20045493334628564 0.0
N N 0.32094500296056766 0.40096635211226567 -0.21478984118962255 0.0
C C 0.30462748177171706 0.5513394695604512 -0.04993360461923762 0.0
H H 0.272157481771717 0.6182594695604513 -0.040393604619237626 0.0
C C 0.36429171356982626 0.6314429851034429 0.08576007023731133 0.0
C C 0.37664622781919044 0.5604058481782773 0.004910233265734963 0.0
C C 0.4071968429086694 0.41546318435210755 -0.0696925957273022 0.0
H H 0.43863684290866933 0.3448431843521075 -0.0785525957273022 0.0
C C 0.28969659857985885 0.48777961050012053 -0.11643378863551572 0.0
C C 0.2326480511478622 0.49966922030083244 -0.25268247769591046 0.0
C C 0.350050705234657 0.3970961028629102 -0.12479445775895746 0.0
C C 0.40265801884034386 0.44007125867514163 0.010982427768738414 0.0
H H 0.4449880188403439 0.4190512586751416 0.05632242776873841 0.0
O O 0.1837926021421929 0.5495469382911788 -0.358902843758221 0.0
H H 0.2086426021421929 0.608556938291179 -0.374862843758221 0.0
C C 0.249952172633336 0.4212447728388562 -0.31616901352247706 0.0
H H 0.27371217263333597 0.3789557728388561 -0.354309013522477 0.0
C C 0.1192593755093448 0.41650262937511756 -0.3376693681689872 0.0
H H 0.06696526301045534 0.11104920734741532 0.06392312623787562 0.0
H H 0.06696526301045534 0.11104920734741532 0.06392312623787562 0.0
H H 0.1347393755093448 0.3211206293751175 -0.3090593681689873 0.0
H H 0.4040124054514255 0.8433225830073715 0.3113958782152109 0.0
Zn Zn -0.13374364958699198 -0.3088814080500439 -0.2625232082678435 0.0
Zn Zn -0.027223234667976038 -0.2098743887121434 -0.2754344548172444 0.0
O O -0.046143082059777414 -0.15589746259031276 -0.3498694227550066 0.0
O O -0.05609996197777501 -0.3883145517003246 -0.20417699931774402 0.0
O O -0.15251117196136052 -0.21896330352336907 -0.389550824817211 0.0
N N -0.24283982990138728 -0.06930312599384675 -0.6966709641848315 0.0
N N -0.19758665863227393 0.10801459390820066 -0.7241311263790773 0.0
C C -0.1846825164008649 -0.108364073468712 -0.523332888583928 0.0
H H -0.21715251640086491 -0.17528407346871197 -0.5137928885839281 0.0
C C -0.10762985037069421 -0.11373895326452277 -0.38369521098975273 0.0
C C -0.1335588746134139 -0.029585993711900155 -0.48544685141794963 0.0
C C -0.0983931709771307 0.1035127312519015 -0.5787162996660983 0.0
H H -0.06695317097713069 0.1741327312519015 -0.5875762996660981 0.0
C C -0.21314950050651424 -0.03642401612295273 -0.6132025614709528 0.0
C C -0.2500423334683619 0.0802144049274481 -0.7280293978536193 0.0
C C -0.1771214968296556 0.057414649489293486 -0.6558339256863922 0.0
C C -0.09444260299187643 0.05562046607996925 -0.47308166958777426 0.0
H H -0.05211260299187645 0.07664046607996924 -0.4277416695877743 0.0
O O -0.2898634210496525 -0.08870079199707114 -0.8410234039077468 0.0
H H -0.2650134210496525 -0.14771079199707113 -0.8569834039077469 0.0
C C -0.2898185792900918 -0.01334969330997167 -0.8470923095095816 0.0
H H -0.2660585792900918 0.028939306690028324 -0.8852323095095815 0.0
C C -0.3702991057349804 0.1755298602810596 -0.862388686177219 0.0
H H 0.06696526301045534 0.11104920734741532 0.06392312623787562 0.0
H H 0.06696526301045534 0.11104920734741532 0.06392312623787562 0.0
H H -0.35481910573498043 0.2709118602810595 -0.8337786861772191 0.0
H H -0.057069961977775016 -0.4199945517003246 -0.17073699931774403 0.0
Zn Zn 0.1550216913317594 -0.25753348591455494 -0.22479159166667836 0.0
O O 0.04728701477775323 -0.14070204458615615 -0.1595519962470358 0.0
O O 0.058576530021078814 -0.33675450173986454 -0.25880284498233974 0.0
O O 0.14451813311675246 -0.24228153245517978 -0.1153900233614003 0.0
N N 0.25500305483285207 -0.0588273380432435 0.18880575075322517 0.0
N N 0.1818943870469436 0.10514760575520687 0.20567725540772122 0.0
C C 0.20167141278991782 -0.08272492466026776 0.0570558444631928 0.0
H H 0.23414141278991782 -0.14964492466026774 0.047515844463192805 0.0
C C 0.10604314580365148 -0.1304433308424476 -0.12497208732893783 0.0
C C 0.12233995614171213 -0.12597487293989793 -0.020614554999303952 0.0
C C 0.09839672292033495 0.123052797985461 0.08757182188028294 0.0
H H 0.06695672292033496 0.19367279798546097 0.09643182188028292 0.0
C C 0.2109420404284569 -0.044091338434705314 0.12254496942161645 0.0
C C 0.2621656047360505 0.00025163702704511086 0.2580977321886426 0.0
C C 0.1434087563678992 0.10062105394782421 0.11571922057989134 0.0
C C 0.0878203000240932 0.04412985706278515 0.004690558404192978 0.0
H H 0.04549030002409319 0.06514985706278514 -0.040649441595807016 0.0
O O 0.35828148228438433 0.022686112091410335 0.3271701343518143 0.0
H H 0.3334314822843843 -0.03632388790858967 0.3431301343518143 0.0
C C 0.275151536264261 0.09270773747790478 0.3562399757494873 0.0
H H 0.2513915362642609 0.13499673747790478 0.39437997574948724 0.0
C C 0.38606341097731983 0.146989800880601 0.3205016417692161 0.0
H H 0.06696526301045534 0.11104920734741532 0.06392312623787562 0.0
H H 0.06696526301045534 0.11104920734741532 0.06392312623787562 0.0
H H 0.37058341097731984 0.24237180088060098 0.29189164176921617 0.0
H H 0.05954653002107882 -0.36843450173986453 -0.2922428449823397 0.0
Zn Zn 0.3237821979831287 0.14217494638215192 -0.28719888910512315 0.0
Zn Zn 0.49315296873335146 0.17735672826509927 -0.25777341575438645 0.0
O O 0.43560512968105225 0.4091350787875492 -0.3346281536783459 0.0
O O 0.4079052239900112 0.14704187084892167 -0.25543144047870564 0.0
O O 0.33982330784199355 0.26870372192857894 -0.3766230358343689 0.0
N N 0.2532020084888031 0.4642946825473412 -0.6839230532064259 0.0
N N 0.3078657261064643 0.684512209786854 -0.6990982950679272 0.0
C C 0.3015797284180873 0.3627346925416145 -0.5423775837481387 0.0
H H 0.2691097284180872 0.2958146925416145 -0.5328375837481387 0.0
C C 0.4102915962704816 0.3914011732282936 -0.41698526290223037 0.0
C C 0.3800918271797077 0.38439522172983703 -0.4745859073820336 0.0
C C 0.41782660260959625 0.6041486795535843 -0.5842240920336331 0.0
H H 0.4492666026095961 0.6747686795535844 -0.593084092033633 0.0
C C 0.2836817295077155 0.466795617227335 -0.6211911410616655 0.0
C C 0.255285511931636 0.5560151533798275 -0.7519879016070046 0.0
C C 0.36843250941031935 0.5910020394164143 -0.5986658178754909 0.0
C C 0.4113191172324039 0.5767583973156324 -0.4763181658959974 0.0
H H 0.45364911723240386 0.5977783973156323 -0.4309781658959974 0.0
O O 0.1528641655153279 0.4609886010266324 -0.8747371078664092 0.0
H H 0.17771416551532787 0.4019786010266323 -0.8906971078664093 0.0
C C 0.21515128636438616 0.5919269139600445 -0.8200522858184881 0.0
H H 0.23891128636438613 0.6342159139600445 -0.858192285818488 0.0
C C 0.15588771663192663 0.7558401854294747 -0.7908135102993071 0.0
H H 0.06696526301045534 0.11104920734741532 0.06392312623787562 0.0
H H 0.06696526301045534 0.11104920734741532 0.06392312623787562 0.0
H H 0.17136771663192668 0.8512221854294748 -0.7622035102993071 0.0
H H 0.4069352239900112 0.1153618708489217 -0.22199144047870567 0.0
Zn Zn 0.6538487047215835 0.21464665043251618 -0.24780950921059505 0.0
O O 0.5329758661507981 0.4191859935126966 -0.15071127817384009 0.0
O O 0.5741362866013769 0.13517380762092313 -0.29034552259553636 0.0
O O 0.6630544717551378 0.30007045084825046 -0.11920073488917235 0.0
N N 0.7533454052436895 0.47667551676497927 0.19458468431599238 0.0
N N 0.7028575558025487 0.629973136627144 0.2238818119637232 0.0
C C 0.6947820822868941 0.4215416950259615 0.03568923500123225 0.0
H H 0.727252082286894 0.3546216950259615 0.026149235001232254 0.0
C C 0.604111043555176 0.3682192846032921 -0.097779744433214 0.0
C C 0.6165884840017717 0.4341819617731507 -0.019727280259763554 0.0
C C 0.6212348569286887 0.6440286859042408 0.10699947668696712 0.0
H H 0.5897948569286887 0.7146486859042408 0.1158594766869671 0.0
C C 0.6960838791302894 0.4943902534287658 0.09165762413442577 0.0
C C 0.7428942821052527 0.571457092360146 0.25842233218354993 0.0
C C 0.6540330704128646 0.5766584667986189 0.1380390745561193 0.0
C C 0.5894680026685584 0.5280703903576887 -0.010038195231970548 0.0
H H 0.5471380026685584 0.5490903903576887 -0.05537819523197054 0.0
O O 0.8089501653456291 0.38066446365974593 0.3469467647262748 0.0
H H 0.7841001653456292 0.3216544636597458 0.3629067647262748 0.0
C C 0.7754350652346763 0.6112667221191145 0.3295695583676941 0.0
H H 0.7516750652346763 0.6535557221191144 0.36770955836769403 0.0
C C 0.8658759449427573 0.5698428874502892 0.30982202158850825 0.0
H H 0.06696526301045534 0.11104920734741532 0.06392312623787562 0.0
H H 0.06696526301045534 0.11104920734741532 0.06392312623787562 0.0
H H 0.8503959449427575 0.6652248874502893 0.2812120215885084 0.0
H H 0.575106286601377 0.10349380762092314 -0.3237855225955364 0.0
