_cell_length_a 20.4364
_cell_length_b 9.005017
_cell_length_c 16.6723
_cell_angle_alpha 90.0
_cell_angle_beta 110.2303
_cell_angle_gamma 90.0
_symmetry_space_group_name_H-M         'P 1'
_symmetry_Int_Tables_number            1
loop_
_symmetry_equiv_pos_as_xyz
   'x, y, z'
                         
loop_
_atom_site_label
_atom_site_type_symbol
_atom_site_fract_x 
_atom_site_fract_y
_atom_site_fract_z
_atom_site_charge
Zn Zn 0.1632178547505737 0.3302413887976179 0.26313209790701547 0.0
Zn Zn 0.016101640787348753 0.24056305363248448 0.2741304424505525 0.0
O O 0.06505099598958967 0.08671444061411497 0.32641216357540676 0.0
O O 0.059572405385502326 0.40368852678171385 0.23382541708408955 0.0
O O 0.1733116259337288 0.1878134938038205 0.3923543094085013 0.0
N N 0.25100951721705206 -0.017048216890148387 0.7014917770105978 0.0
N N 0.1798746954567096 -0.140910973433519 0.6905035987787426 0.0
C C 0.19029480633383775 0.14416774776222538 0.552240518272424 0.0
H H 0.2227648063338378 0.21108774776222533 0.5427005182724242 0.0
C C 0.1254716528608077 0.1599398029790134 0.4198594438445123 0.0
C C 0.13878163869344412 0.07287096673435638 0.4623514752019355 0.0
C C 0.11831168080625669 -0.1840656996876645 0.5633823562936049 0.0
H H 0.08687168080625668 -0.2546856996876645 0.5722423562936049 0.0
C C 0.20086767913036016 0.037235689403934374 0.6045896772567493 0.0
C C 0.2599667250310715 -0.033785468806325325 0.7697402557615061 0.0
C C 0.1783830210551656 -0.023734234016674134 0.6405708625837012 0.0
C C 0.07725596029864563 -0.04112238202174838 0.4851619434412885 0.0
H H 0.03492596029864565 -0.06214238202174837 0.4398219434412885 0.0
O O 0.3789699997762274 -0.05552668285865125 0.8442068769421451 0.0
H H 0.3541199997762274 0.003483317141348763 0.8601668769421452 0.0
C C 0.319982820780071 -0.17318893874975988 0.8378049483210905 0.0
H H 0.296222820780071 -0.21547793874975987 0.8759449483210905 0.0
C C 0.36742916711296364 -0.20389170595748493 0.8373323953330594 0.0
H H 0.06696526301045534 0.11104920734741532 0.06392312623787562 0.0
H H 0.06696526301045534 0.11104920734741532 0.06392312623787562 0.0
H H 0.35194916711296365 -0.2992737059574849 0.8087223953330595 0.0
H H 0.06054240538550233 0.4353685267817138 0.20038541708408958 0.0
Zn Zn -0.13747129160049182 0.29379194043492274 0.2394343895596529 0.0
O O -0.05860925955333741 0.11756824325105748 0.19447849827892574 0.0
O O -0.062405277392280196 0.34679324145298634 0.29051935207876634 0.0
O O -0.17322847566745758 0.2079407510059362 0.09122100050096367 0.0
N N -0.26727931996829857 0.10568652897948856 -0.2027463183443646 0.0
N N -0.19655763479753272 -0.0872321695832752 -0.21150221964866928 0.0
C C -0.18709408143108702 0.13763524828167173 -0.013976210449754889 0.0
H H -0.21956408143108702 0.20455524828167174 -0.004436210449754897 0.0
C C -0.11509035347983665 0.18652612080956202 0.0853137339804368 0.0
C C -0.12735051026942187 0.08856247321839072 0.002384639839850197 0.0
C C -0.11549327486678791 -0.07128591857784437 -0.057789045747085835 0.0
H H -0.08405327486678792 -0.14190591857784438 -0.06664904574708581 0.0
C C -0.19894097177228592 0.034494766392419496 -0.10896684050622912 0.0
C C -0.281714560786678 -0.013002268413461247 -0.2531264486875314 0.0
C C -0.16415002250974725 -0.07543484374876507 -0.1343712782538065 0.0
C C -0.07891353893903567 0.002368149840208167 0.016935882453617213 0.0
H H -0.03658353893903568 -0.018651850159791823 0.0622758824536172 0.0
O O -0.3242813536201071 0.08827850464524489 -0.3994014909869901 0.0
H H -0.2994313536201071 0.14728850464524487 -0.41536149098699016 0.0
C C -0.3249114348787249 -0.11945475708734873 -0.37844311324322044 0.0
H H -0.3011514348787249 -0.16174375708734873 -0.4165831132432204 0.0
C C -0.3377078775796141 -0.11568914157141752 -0.32212806196331645 0.0
H H 0.06696526301045534 0.11104920734741532 0.06392312623787562 0.0
H H 0.06696526301045534 0.11104920734741532 0.06392312623787562 0.0
H H -0.32222787757961413 -0.21107114157141754 -0.29351806196331653 0.0
H H -0.06337527739228019 0.37847324145298633 0.32395935207876636 0.0
Zn Zn 0.6698654164136275 0.7946331364294696 0.28357135033322795 0.0
Zn Zn 0.5095663914865929 0.7984845743050715 0.26223436679749973 0.0
O O 0.553737528692923 0.6243459294608779 0.3556981710304554 0.0
O O 0.546206297106798 0.8143685040671734 0.21832096320092417 0.0
O O 0.6475658429959333 0.6488874880793115 0.3758916301657755 0.0
N N 0.7748248341836754 0.5403711846047761 0.6854520359221 0.0
N N 0.7099139531467042 0.3271841573616379 0.724963857980074 0.0
C C 0.7003679659195172 0.5934924466199029 0.5320454871414948 0.0
H H 0.7328379659195173 0.660412446619903 0.5225054871414949 0.0
C C 0.6120982294203056 0.6310038514107102 0.39601957233347423 0.0
C C 0.6396722079917546 0.5472733749948915 0.47408396400665476 0.0
C C 0.6045878229523296 0.39576549592592564 0.5520777343996441 0.0
H H 0.5731478229523296 0.3251454959259256 0.560937734399644 0.0
C C 0.6947372294437867 0.506692666807774 0.610371492085691 0.0
C C 0.7643365350035222 0.4409158959238118 0.7608445147052881 0.0
C C 0.663731041188723 0.47183735575485486 0.632261422069996 0.0
C C 0.5874288354710794 0.49720785209197865 0.5061817768253187 0.0
H H 0.5450988354710794 0.4761878520919786 0.4608417768253188 0.0
O O 0.8238891378640374 0.5453877209970436 0.8378188064432278 0.0
H H 0.7990391378640374 0.6043977209970437 0.8537788064432279 0.0
C C 0.7927400311947062 0.3903610066163974 0.8651314697426337 0.0
H H 0.7689800311947061 0.34807200661639737 0.9032714697426336 0.0
C C 0.8776278288493526 0.27789543443521786 0.8465846686070221 0.0
H H 0.06696526301045534 0.11104920734741532 0.06392312623787562 0.0
H H 0.06696526301045534 0.11104920734741532 0.06392312623787562 0.0
H H 0.8621478288493528 0.18251343443521784 0.8179746686070222 0.0
H H 0.547176297106798 0.8460485040671736 0.18488096320092418 0.0
Zn Zn 0.329789370714452 0.8143196310028828 0.2481684670018449 0.0
O O 0.4531796977057676 0.5922847111703411 0.1615881571004086 0.0
O O 0.42214919421851993 0.7916838086233954 0.2531638239736101 0.0
O O 0.317023234562206 0.7357968470188894 0.111316323332801 0.0
N N 0.25410628369862287 0.5928401583298234 -0.21041654084389858 0.0
N N 0.2973021800311664 0.3811189675895909 -0.19889451573488107 0.0
C C 0.31801911411948924 0.5876230053212406 -0.0380259004982004 0.0
H H 0.2855491141194892 0.6545430053212407 -0.02848590049820041 0.0
C C 0.3827559310674813 0.637589597668299 0.11859339731341341 0.0
C C 0.36186261133495506 0.5841192729186592 0.024867386399549364 0.0
C C 0.40564648064149456 0.3914242195255731 -0.057473825368039785 0.0
H H 0.43708648064149447 0.3208042195255731 -0.06633382536803976 0.0
C C 0.28120628388014546 0.5295609461907014 -0.12360285293831016 0.0
C C 0.28023384353188324 0.4598715464068359 -0.22530340767006246 0.0
C C 0.33154274171195625 0.3897386338988728 -0.1265760410722059 0.0
C C 0.43522921273472737 0.43464196546385486 0.015521308007134818 0.0
H H 0.47755921273472735 0.4136219654638549 0.06086130800713481 0.0
O O 0.15944317330163812 0.5936006048168764 -0.3631811663720682 0.0
H H 0.1842931733016382 0.6526106048168765 -0.3791411663720682 0.0
C C 0.20835799435788876 0.4415638807804603 -0.34964118349701895 0.0
H H 0.23211799435788874 0.3992748807804603 -0.3877811834970189 0.0
C C 0.08996835481499205 0.40863216331132923 -0.379193853647312 0.0
H H 0.06696526301045534 0.11104920734741532 0.06392312623787562 0.0
H H 0.06696526301045534 0.11104920734741532 0.06392312623787562 0.0
H H 0.10544835481499204 0.31325016331132927 -0.35058385364731215 0.0
H H 0.4211791942185199 0.8233638086233955 0.2866038239736102 0.0
Zn Zn -0.16834068051205928 -0.2693426765211569 -0.27789119608888857 0.0
Zn Zn 0.009190429250247392 -0.28983307715969064 -0.23626697879845385 0.0
O O -0.047747490838826005 -0.16097760214331147 -0.3394539351738033 0.0
O O -0.06981795095261355 -0.3832239532165949 -0.21689910258383935 0.0
O O -0.15710980900854557 -0.24761579388417493 -0.37955438312475764 0.0
N N -0.2645751196090746 -0.044390499273867054 -0.6973289834304435 0.0
N N -0.1835739848351665 0.15118389076055475 -0.7131096222503851 0.0
C C -0.1930545412288879 -0.07435804809813924 -0.5563753963264851 0.0
H H -0.22552454122888793 -0.1412780480981392 -0.5468353963264851 0.0
C C -0.12102011231411536 -0.10758803970777726 -0.4061130975221894 0.0
C C -0.12535724024197903 -0.09577691357480068 -0.4839130697208976 0.0
C C -0.11027788820473552 0.10488154338832441 -0.6047806688449068 0.0
H H -0.07883788820473552 0.17550154338832438 -0.6136406688449066 0.0
C C -0.21070087346898553 -0.013197263581445807 -0.6051540218472428 0.0
C C -0.2384924444252783 0.03466859837754305 -0.7419829097662389 0.0
C C -0.14186079468774496 0.04915240112460928 -0.624718567980061 0.0
C C -0.09282415766416925 -0.004554119112691083 -0.49359958445768254 0.0
H H -0.05049415766416926 0.016465880887308906 -0.4482595844576826 0.0
O O -0.3364818560456543 0.006269993133195695 -0.8894493012969646 0.0
H H -0.31163185604565424 -0.05274000686680431 -0.9054093012969647 0.0
C C -0.2974070962081036 0.1067851451824485 -0.8672039380734968 0.0
H H -0.2736470962081036 0.1490741451824485 -0.9053439380734967 0.0
C C -0.35733239281168283 0.2621163411557587 -0.8334431140064286 0.0
H H 0.06696526301045534 0.11104920734741532 0.06392312623787562 0.0
H H 0.06696526301045534 0.11104920734741532 0.06392312623787562 0.0
H H -0.34185239281168284 0.3574983411557587 -0.8048331140064287 0.0
H H -0.07078795095261355 -0.4149039532165949 -0.18345910258383935 0.0
Zn Zn 0.15228911420483207 -0.28897960753278484 -0.22496124453366723 0.0
O O 0.05186936398691326 -0.0938469285040641 -0.15591972226454143 0.0
O O 0.07558186212882918 -0.3634942877760211 -0.26589607861241976 0.0
O O 0.1565173578173192 -0.20312004151958885 -0.1167613050396239 0.0
N N 0.24670745238589412 -0.07332834247276375 0.1850848398416759 0.0
N N 0.1635366731874179 0.14979067407730828 0.2165971646339862 0.0
C C 0.20050313758921567 -0.0587585642275157 0.05143039204285399 0.0
H H 0.2329731375892157 -0.1256785642275157 0.041890392042854 0.0
C C 0.1109784541937064 -0.1295599580577324 -0.11594495250500389 0.0
C C 0.14552780861684872 -0.04397425015952043 -0.005932522426592069 0.0
C C 0.06970323476956737 0.15910662603163583 0.040088045506779274 0.0
H H 0.03826323476956737 0.22972662603163585 0.04894804550677925 0.0
C C 0.19517020056265372 -0.01531527367337652 0.11868651200994332 0.0
C C 0.24431370876493577 0.027574813729051125 0.2553525278862441 0.0
C C 0.14781068881986192 0.07231409930028602 0.12402572257301137 0.0
C C 0.10442834503108606 0.048598999321980654 -0.01915154460287001 0.0
H H 0.06209834503108605 0.06961899932198065 -0.06449154460287 0.0
O O 0.35153112731563774 -0.0736128605571913 0.3762369938633869 0.0
H H 0.3266811273156377 -0.1326228605571913 0.39219699386338686 0.0
C C 0.2550172480189551 0.12475518754574287 0.32243552143160187 0.0
H H 0.23125724801895506 0.16704418754574285 0.3605755214316018 0.0
C C 0.41796936084265973 0.20708700688582313 0.3727603895005725 0.0
H H 0.06696526301045534 0.11104920734741532 0.06392312623787562 0.0
H H 0.06696526301045534 0.11104920734741532 0.06392312623787562 0.0
H H 0.40248936084265974 0.3024690068858231 0.34415038950057264 0.0
H H 0.07655186212882917 -0.39517428777602104 -0.2993360786124198 0.0
Zn Zn 0.3343953633834439 0.236210604763645 -0.29606147157404233 0.0
Zn Zn 0.5008415194825329 0.2428204428147741 -0.26798252559218533 0.0
O O 0.46192304630705866 0.38458191527278657 -0.34235228321861716 0.0
O O 0.4214653136437323 0.21322316511280384 -0.23405264928764807 0.0
O O 0.3379322830762766 0.3048147207516711 -0.3932634905015182 0.0
N N 0.23371707238157155 0.4701818028992282 -0.7024751303174668 0.0
N N 0.2943923303345755 0.6709243771275804 -0.7297992922311115 0.0
C C 0.3022550705990425 0.4303945424404913 -0.5274980909570313 0.0
H H 0.26978507059904244 0.3634745424404913 -0.5179580909570314 0.0
C C 0.3746925340995699 0.3263542164254071 -0.39627844471343376 0.0
C C 0.36594355999318307 0.4695845889868158 -0.48256472118441934 0.0
C C 0.4013306961883125 0.6364583008350536 -0.5626066178661749 0.0
H H 0.4327706961883124 0.7070783008350536 -0.5714666178661749 0.0
C C 0.28624637196104447 0.4795620128985075 -0.623734114954974 0.0
C C 0.25204235859977725 0.5534587159596258 -0.7547007744149716 0.0
C C 0.3236962840853189 0.6262811546703952 -0.6314582537089611 0.0
C C 0.40984553919339906 0.47244923190107097 -0.4848638975243913 0.0
H H 0.45217553919339915 0.49346923190107095 -0.4395238975243913 0.0
O O 0.1507567359387725 0.4737938813196617 -0.944532621359414 0.0
H H 0.17560673593877252 0.4147838813196616 -0.960492621359414 0.0
C C 0.2051735741355094 0.5399133962486776 -0.8438809854809963 0.0
H H 0.22893357413550938 0.5822023962486778 -0.8820209854809963 0.0
C C 0.077909367653777 0.6500294555973904 -0.8931865697936294 0.0
H H 0.06696526301045534 0.11104920734741532 0.06392312623787562 0.0
H H 0.06696526301045534 0.11104920734741532 0.06392312623787562 0.0
H H 0.09338936765377699 0.7454114555973905 -0.8645765697936295 0.0
H H 0.4204953136437324 0.18154316511280386 -0.20061264928764808 0.0
Zn Zn 0.6631939383138192 0.19548010681949626 -0.22751946590915942 0.0
O O 0.5542936211697693 0.3371928056604916 -0.14415905946417595 0.0
O O 0.5655422893163834 0.1154936637825105 -0.2835087233731101 0.0
O O 0.6671928575732456 0.2597007162219604 -0.11648282433315364 0.0
N N 0.7471914929477366 0.45497810229724245 0.21380267711309342 0.0
N N 0.691026304773918 0.7023039639003231 0.21850352212610138 0.0
C C 0.6858674344339047 0.3855109968189787 0.044305131489619606 0.0
H H 0.7183374344339046 0.31859099681897873 0.03476513148961961 0.0
C C 0.6098088610184866 0.39174493303381297 -0.10761269168203738 0.0
C C 0.6284711241136185 0.4374381440319833 -0.010762308516671966 0.0
C C 0.6031598216363964 0.5741830758318718 0.04746035314640021 0.0
H H 0.5717198216363965 0.6448030758318719 0.05632035314640019 0.0
C C 0.6947162297201357 0.5471873427450095 0.12044245968272946 0.0
C C 0.7375754178253658 0.5234132896436055 0.24578158183503815 0.0
C C 0.650535139812675 0.5590057328730039 0.11225781227712664 0.0
C C 0.5980672902256513 0.5063989960748853 -0.006433635364096577 0.0
H H 0.5557372902256512 0.5274189960748852 -0.051773635364096564 0.0
O O 0.8141803139191591 0.5245230327912044 0.37680453976667777 0.0
H H 0.789330313919159 0.46551303279120443 0.39276453976667774 0.0
C C 0.8192879668758978 0.5205052664585654 0.300671640657803 0.0
H H 0.7955279668758978 0.5627942664585656 0.33881164065780295 0.0
C C 0.8904485838351652 0.7351347198741235 0.3412731749026943 0.0
H H 0.06696526301045534 0.11104920734741532 0.06392312623787562 0.0
H H 0.06696526301045534 0.11104920734741532 0.06392312623787562 0.0
H H 0.8749685838351654 0.8305167198741236 0.31266317490269446 0.0
H H 0.5665122893163834 0.0838136637825105 -0.3169487233731101 0.0
