_cell_length_a 20.4364
_cell_length_b 9.005017
_cell_length_c 16.6723
_cell_angle_alpha 90.0
_cell_angle_beta 110.2303
_cell_angle_gamma 90.0
_symmetry_space_group_name_H-M         'P 1'
_symmetry_Int_Tables_number            1
loop_
_symmetry_equiv_pos_as_xyz
   'x, y, z'
                         
loop_
_atom_site_label
_atom_site_type_symbol
_atom_site_fract_x 
_atom_site_fract_y
_atom_site_fract_z
_atom_site_charge
Zn Zn 0.16851764831955907 0.24424338240832966 0.2547144545998797 0.0
Zn Zn 0.0014532352300387747 0.25490464306376753 0.25113609820050586 0.0
O O 0.0431407815307315 0.13474232471299527 0.36120709980763416 0.0
O O 0.03884892848916279 0.34406992796113406 0.19683344904338176 0.0
O O 0.15006515684576083 0.2440214737452996 0.3712624064215373 0.0
N N 0.2549627419733003 0.043780186548000165 0.7164865235701775 0.0
N N 0.18905089355656443 -0.10609568693970133 0.7218391847029372 0.0
C C 0.19773354495591927 0.09962721757942401 0.5336804697219123 0.0
H H 0.2302035449559193 0.166547217579424 0.5241404697219123 0.0
C C 0.11734354007403441 0.10333669230741488 0.3801502792362632 0.0
C C 0.12451815279252779 0.09738982244951824 0.45765400147766255 0.0
C C 0.10711633872226205 -0.12316913514546277 0.5586548195020001 0.0
H H 0.07567633872226202 -0.19378913514546275 0.567514819502 0.0
C C 0.21137489004254612 0.06479367860327737 0.6123269833816083 0.0
C C 0.22947384271346713 -0.048570726715000866 0.7328736770097248 0.0
C C 0.1513659763712677 -0.11563577516653709 0.6297254856303157 0.0
C C 0.08913824223025477 -0.027709109837957498 0.5048015530307312 0.0
H H 0.046808242230254773 -0.04872910983795748 0.45946155303073116 0.0
O O 0.36489812744285804 0.0012511794300561275 0.8597630516183611 0.0
H H 0.34004812744285806 0.060261179430056135 0.8757230516183612 0.0
C C 0.31281627390449696 -0.09228245835884451 0.8441773668964955 0.0
H H 0.28905627390449695 -0.13457145835884451 0.8823173668964954 0.0
C C 0.3200246490491528 -0.11650876368819513 0.8135083693163775 0.0
H H 0.06696526301045534 0.11104920734741532 0.06392312623787562 0.0
H H 0.06696526301045534 0.11104920734741532 0.06392312623787562 0.0
H H 0.3045446490491528 -0.2118907636881951 0.7848983693163776 0.0
H H 0.039818928489162804 0.3757499279611341 0.1633934490433818 0.0
Zn Zn -0.15873977768073216 0.29729319425786427 0.2342005102284141 0.0
O O -0.056709002246121666 0.08253721636429989 0.15186106793738277 0.0
O O -0.06975389502196101 0.356001236667847 0.2737691143059718 0.0
O O -0.15222382373953974 0.24235110920707165 0.12021459076323242 0.0
N N -0.25788744714320205 0.06417006013556167 -0.19756418948443485 0.0
N N -0.18985923838408403 -0.17281673421682334 -0.22588769040924733 0.0
C C -0.18211282068963042 0.08280570134618552 -0.01053721166025162 0.0
H H -0.21458282068963044 0.14972570134618554 -0.0009972116602516275 0.0
C C -0.11220362580376136 0.1075586302288221 0.11923864504050327 0.0
C C -0.12488254081544 0.06256685066418423 0.01287600576770948 0.0
C C -0.08837063861928036 -0.07416122432670831 -0.05161269702413311 0.0
H H -0.05693063861928036 -0.1447812243267083 -0.0604726970241331 0.0
C C -0.2092626504253255 0.025412645152016633 -0.11306803244866094 0.0
C C -0.2520357441968409 -0.07949875652023095 -0.2536115139760199 0.0
C C -0.18267575683284895 -0.07112875455484857 -0.12926998190889613 0.0
C C -0.0789639302982701 -0.019502946244218857 0.012959458807290372 0.0
H H -0.036633930298270105 -0.040522946244218844 0.058299458807290365 0.0
O O -0.355905133206808 0.02380380952731185 -0.3905157985487098 0.0
H H -0.3310551332068079 0.08281380952731185 -0.40647579854870985 0.0
C C -0.2957617386096545 -0.1143526555974939 -0.32171717544787803 0.0
H H -0.2720017386096545 -0.15664165559749388 -0.359857175447878 0.0
C C -0.33868876534210424 -0.12445552865878454 -0.2933614387144268 0.0
H H 0.06696526301045534 0.11104920734741532 0.06392312623787562 0.0
H H 0.06696526301045534 0.11104920734741532 0.06392312623787562 0.0
H H -0.32320876534210424 -0.21983752865878456 -0.26475143871442697 0.0
H H -0.07072389502196098 0.387681236667847 0.3072091143059718 0.0
Zn Zn 0.6448549539921539 0.8270920746247616 0.23770042752454915 0.0
Zn Zn 0.5181635710367778 0.7568617843839868 0.2671257257705589 0.0
O O 0.5583226578451993 0.5705858942954783 0.316886070035319 0.0
O O 0.5554393210340609 0.844744963502175 0.1876663276593652 0.0
O O 0.6530259805670944 0.7564676980653725 0.39405872345780896 0.0
N N 0.7609049277446402 0.5539817784467366 0.712046463601548 0.0
N N 0.6707432627538877 0.3972083782152931 0.7073279459447593 0.0
C C 0.6827823260390407 0.6281669439663643 0.5364088316570318 0.0
H H 0.7152523260390407 0.6950869439663644 0.5268688316570319 0.0
C C 0.5972838683727181 0.6150475711232506 0.3969344997127538 0.0
C C 0.6405619781985433 0.5738167436721932 0.4763865151686047 0.0
C C 0.6128721626768687 0.39675572953042354 0.5694427553548693 0.0
H H 0.5814321626768688 0.3261357295304235 0.5783027553548692 0.0
C C 0.6832504238021747 0.5050819994193033 0.5977123658804979 0.0
C C 0.7591970378157947 0.41922635312606804 0.758847190187288 0.0
C C 0.6739850337164731 0.4193360626331881 0.6283447480034179 0.0
C C 0.5971944721321226 0.4265875049508065 0.49369011456445494 0.0
H H 0.5548644721321226 0.40556750495080646 0.44835011456445495 0.0
O O 0.8480793269552731 0.5699998646378313 0.908948238588562 0.0
H H 0.8232293269552731 0.6290098646378314 0.924908238588562 0.0
C C 0.8172658884007195 0.4103464843301209 0.8337997453052585 0.0
H H 0.7935058884007196 0.36805748433012087 0.8719397453052584 0.0
C C 0.8866996253844567 0.35296486338933925 0.8644372548760599 0.0
H H 0.06696526301045534 0.11104920734741532 0.06392312623787562 0.0
H H 0.06696526301045534 0.11104920734741532 0.06392312623787562 0.0
H H 0.8712196253844569 0.2575828633893392 0.83582725487606 0.0
H H 0.556409321034061 0.8764249635021751 0.15422632765936523 0.0
Zn Zn 0.3297985612429122 0.7876715222589362 0.23039858773316838 0.0
O O 0.4376331098996813 0.6005924979717124 0.17674118780497705 0.0
O O 0.44992849512079924 0.8852292559997091 0.27641521212232334 0.0
O O 0.33996758488051737 0.7697980070114886 0.11924909600104619 0.0
N N 0.23707572549357545 0.5889830700849144 -0.20129463591200283 0.0
N N 0.3082341671512333 0.3627012053097961 -0.20407428452074616 0.0
C C 0.3162192109990388 0.5916074918524765 -0.03130558762963144 0.0
H H 0.2837492109990388 0.6585274918524766 -0.021765587629631447 0.0
C C 0.38576435823226746 0.6842498188950138 0.07930008154472624 0.0
C C 0.35839932499931665 0.5670620947807216 0.029207193520912403 0.0
C C 0.37812797779342294 0.40212629411405443 -0.09866378969895927 0.0
H H 0.40956797779342285 0.3315062941140544 -0.10752378969895926 0.0
C C 0.30331623956222764 0.5060890991497203 -0.11344406857122621 0.0
C C 0.23092328250969527 0.47828079316511385 -0.24237943247499277 0.0
C C 0.33666285991512795 0.411199398464753 -0.12546078362663043 0.0
C C 0.4113896087578366 0.43839586034855604 0.026765374835183917 0.0
H H 0.45371960875783657 0.417375860348556 0.07210537483518391 0.0
O O 0.14789582620072553 0.5162187398478708 -0.36627882089199587 0.0
H H 0.17274582620072554 0.5752287398478708 -0.38223882089199585 0.0
C C 0.17658097862813485 0.504454978224489 -0.31876364778389776 0.0
H H 0.20034097862813488 0.462165978224489 -0.3569036477838977 0.0
C C 0.1475585806809851 0.3520436693231172 -0.3059967684318167 0.0
H H 0.06696526301045534 0.11104920734741532 0.06392312623787562 0.0
H H 0.06696526301045534 0.11104920734741532 0.06392312623787562 0.0
H H 0.1630385806809851 0.2566616693231172 -0.27738676843181687 0.0
H H 0.4489584951207993 0.9169092559997093 0.30985521212232336 0.0
Zn Zn -0.16345659220276262 -0.3377436323527384 -0.2827253702942676 0.0
Zn Zn 0.00811381849928494 -0.29709169304827915 -0.26583258225746487 0.0
O O -0.06384193561602194 -0.1087241138590446 -0.33214639479004215 0.0
O O -0.07283576111329586 -0.3842353782652582 -0.2413765345963066 0.0
O O -0.15730624516462685 -0.2063836670946308 -0.3774571975704699 0.0
N N -0.27386051584373106 -0.04312573706133358 -0.7019122367151769 0.0
N N -0.17281071065034656 0.09652822773984614 -0.7372697143678216 0.0
C C -0.21070973262909992 -0.08249209409422688 -0.5248392329054226 0.0
H H -0.24317973262909995 -0.14941209409422684 -0.5152992329054227 0.0
C C -0.09314136834625289 -0.12262302712668578 -0.3937197076603255 0.0
C C -0.1360830543778383 -0.04516966605529908 -0.48084395322195933 0.0
C C -0.11319847323962233 0.12100434536257224 -0.5564826606664971 0.0
H H -0.0817584732396223 0.19162434536257222 -0.565342660666497 0.0
C C -0.20073463972840164 -0.03127837359051219 -0.6276922872095325 0.0
C C -0.2352071113500055 0.03280796342457388 -0.7308082853927129 0.0
C C -0.16976403204814436 0.06244143148811918 -0.6236925729727969 0.0
C C -0.10201916800425934 0.04703646932586868 -0.48657615944860466 0.0
H H -0.059689168004259344 0.06805646932586866 -0.44123615944860467 0.0
O O -0.3511933115784358 0.00302775369173969 -0.858978377412404 0.0
H H -0.3263433115784358 -0.05598224630826032 -0.8749383774124041 0.0
C C -0.30690342302801615 0.08296711261666956 -0.8688904855380428 0.0
H H -0.28314342302801615 0.12525611261666952 -0.9070304855380428 0.0
C C -0.3518044110000919 0.2404649024017716 -0.838448726007944 0.0
H H 0.06696526301045534 0.11104920734741532 0.06392312623787562 0.0
H H 0.06696526301045534 0.11104920734741532 0.06392312623787562 0.0
H H -0.3363244110000919 0.33584690240177156 -0.8098387260079439 0.0
H H -0.07380576111329587 -0.4159153782652582 -0.2079365345963066 0.0
Zn Zn 0.1626845104000943 -0.27637353772039414 -0.22737601481236933 0.0
O O 0.044578508751446144 -0.1329073969713332 -0.14590979667734055 0.0
O O 0.08035482223297534 -0.3167004962460317 -0.29431552788307025 0.0
O O 0.15276690187285102 -0.24957068164291735 -0.10146326849165486 0.0
N N 0.25045471110277645 -0.03207876250646324 0.18775082290085504 0.0
N N 0.18034769574080356 0.1964156978441955 0.21553075247069325 0.0
C C 0.20120623976115987 -0.06602635625993387 0.0618720829405083 0.0
H H 0.23367623976115987 -0.13294635625993384 0.05233208294050831 0.0
C C 0.12698801308444682 -0.1557118511164426 -0.1010399777169455 0.0
C C 0.14406827121809138 -0.04278634766867769 -0.004786202263202535 0.0
C C 0.1001262624084643 0.12113159748584018 0.05536037762325088 0.0
H H 0.06868626240846429 0.1917515974858402 0.06422037762325086 0.0
C C 0.2097429747014201 -0.017444133201887604 0.12906089700060955 0.0
C C 0.2591019036710033 0.07654819860315704 0.24594898510309132 0.0
C C 0.16194076545470676 0.033987112442304325 0.13825146665555227 0.0
C C 0.0906603659084933 0.005292215600217896 -0.003087185876590757 0.0
H H 0.0483303659084933 0.026312215600217886 -0.04842718587659075 0.0
O O 0.34183649601493177 -0.11719377606116396 0.34468944561177073 0.0
H H 0.31698649601493173 -0.17620377606116394 0.3606494456117707 0.0
C C 0.288071311301138 0.09268567243300274 0.34507671056725997 0.0
H H 0.264311311301138 0.13497467243300273 0.3832167105672599 0.0
C C 0.33915486797620364 0.12206827600485784 0.3218157964117623 0.0
H H 0.06696526301045534 0.11104920734741532 0.06392312623787562 0.0
H H 0.06696526301045534 0.11104920734741532 0.06392312623787562 0.0
H H 0.32367486797620365 0.21745027600485786 0.2932057964117624 0.0
H H 0.08132482223297534 -0.3483804962460317 -0.3277555278830703 0.0
Zn Zn 0.34373451344183786 0.18037253864164596 -0.24742821421748643 0.0
Zn Zn 0.4810218208077107 0.2994169331647355 -0.229526767119 0.0
O O 0.44107702040513885 0.40814645884752937 -0.3483095105390081 0.0
O O 0.4432266619822572 0.09366678189519852 -0.2200073446215817 0.0
O O 0.34592412067873085 0.29480660561900673 -0.3792475808284778 0.0
N N 0.22790862846039983 0.4526828806199784 -0.6859425675611114 0.0
N N 0.3071159041928875 0.5921645919616143 -0.7134075904032584 0.0
C C 0.305294276168426 0.3865765406621673 -0.5542018664561214 0.0
H H 0.27282427616842586 0.31965654066216725 -0.5446618664561215 0.0
C C 0.37914640758294943 0.35095754705144694 -0.3966721480119743 0.0
C C 0.3788980472671364 0.4256912957550572 -0.4673010150773935 0.0
C C 0.4015310199086217 0.6348965865947798 -0.5680872218613552 0.0
H H 0.4329710199086216 0.7055165865947799 -0.576947221861355 0.0
C C 0.3024761039077991 0.48739655334565574 -0.6112085286097526 0.0
C C 0.22955922558514277 0.612684783754399 -0.7552414587466254 0.0
C C 0.32094621041171423 0.5839118228881354 -0.6301694896872112 0.0
C C 0.4216297824882544 0.5055017102976469 -0.48709139404565904 0.0
H H 0.4639597824882543 0.5265217102976468 -0.44175139404565905 0.0
O O 0.1708629624756536 0.3879237036428522 -0.8605144357599034 0.0
H H 0.1957129624756536 0.32891370364285205 -0.8764744357599034 0.0
C C 0.18136516883589163 0.62760221384307 -0.8425902919704988 0.0
H H 0.20512516883589166 0.66989121384307 -0.8807302919704988 0.0
C C 0.09572647354675948 0.6371825523629284 -0.8615724914159387 0.0
H H 0.06696526301045534 0.11104920734741532 0.06392312623787562 0.0
H H 0.06696526301045534 0.11104920734741532 0.06392312623787562 0.0
H H 0.11120647354675951 0.7325645523629285 -0.8329624914159388 0.0
H H 0.4422566619822572 0.06198678189519851 -0.18656734462158173 0.0
Zn Zn 0.6635008406936691 0.233250137560222 -0.2336176380788759 0.0
O O 0.5606421863282031 0.41745211919162195 -0.15938811145102938 0.0
O O 0.567462219720991 0.10515000166993506 -0.2761362386388153 0.0
O O 0.6751651467582345 0.3081976392742161 -0.11518480497581059 0.0
N N 0.7841219482167627 0.36903923142037115 0.20588907641683132 0.0
N N 0.6927026996174153 0.6300604129897954 0.21575247699464306 0.0
C C 0.6986437292890304 0.4195092784091116 0.04733589129392721 0.0
H H 0.7311137292890304 0.35258927840911164 0.037795891293927214 0.0
C C 0.6001459193790882 0.34338999439712314 -0.1356418635936007 0.0
C C 0.6086211136952624 0.44119178673778486 -0.041669323804391104 0.0
C C 0.5817677482920486 0.6574886022100654 0.05496252165239396 0.0
H H 0.5503277482920486 0.7281086022100656 0.06382252165239394 0.0
C C 0.7147668143641087 0.4683442380512499 0.12884413423201818 0.0
C C 0.7373683363662109 0.5834520645472362 0.2424024383455576 0.0
C C 0.6870814303538277 0.597181741755113 0.14823730095104246 0.0
C C 0.5817294737743094 0.5580526015574279 -0.014440639306028884 0.0
H H 0.5393994737743094 0.5790726015574278 -0.05978063930602887 0.0
O O 0.8181127167917336 0.4348369874144978 0.3844581526771069 0.0
H H 0.7932627167917334 0.37582698741449766 0.4004181526771069 0.0
C C 0.7718919966024469 0.5609951651392212 0.31345474250929956 0.0
H H 0.7481319966024469 0.6032841651392212 0.3515947425092995 0.0
C C 0.8396144131185707 0.6507904492125918 0.3531583605952292 0.0
H H 0.06696526301045534 0.11104920734741532 0.06392312623787562 0.0
H H 0.06696526301045534 0.11104920734741532 0.06392312623787562 0.0
H H 0.8241344131185708 0.7461724492125918 0.32454836059522935 0.0
H H 0.568432219720991 0.07347000166993506 -0.30957623863881534 0.0
