_cell_length_a 20.4364
_cell_length_b 9.005017
_cell_length_c 16.6723
_cell_angle_alpha 90.0
_cell_angle_beta 110.2303
_cell_angle_gamma 90.0
_symmetry_space_group_name_H-M         'P 1'
_symmetry_Int_Tables_number            1
loop_
_symmetry_equiv_pos_as_xyz
   'x, y, z'
                         
loop_
_atom_site_label
_atom_site_type_symbol
_atom_site_fract_x 
_atom_site_fract_y
_atom_site_fract_z
_atom_site_charge
Zn Zn 0.1652889841926538 0.2600377695107633 0.2892544531987616 0.0
Zn Zn 0.004295877701843612 0.23931972015122535 0.24939768931481138 0.0
O O 0.04172443581452639 0.12301352793820713 0.31437913914051996 0.0
O O 0.08565912656954787 0.4470479033959938 0.2578173572273235 0.0
O O 0.16669112755094903 0.18382533546288168 0.38415545925811395 0.0
N N 0.25551474820963344 0.06817998784444858 0.7008907664263155 0.0
N N 0.19135909127257933 -0.15761789411222396 0.7161352877026407 0.0
C C 0.18649951748004195 0.09601463864815718 0.5286477787575422 0.0
H H 0.21896951748004198 0.16293463864815716 0.5191077787575422 0.0
C C 0.12818281487626512 0.13589980139514465 0.39695633929722574 0.0
C C 0.14046460214156775 0.06744874828578948 0.46804584881339256 0.0
C C 0.10829688489538451 -0.12045216757899166 0.5732527986007678 0.0
H H 0.0768568848953845 -0.19107216757899165 0.5821127986007678 0.0
C C 0.2268947898714162 0.015808718574037713 0.6152107020657218 0.0
C C 0.22339909193504454 -0.06346089004184595 0.7452639226687482 0.0
C C 0.17164404300258534 -0.05909843241651653 0.609435469131612 0.0
C C 0.07340727262718363 -0.01737180124310779 0.49555596268877555 0.0
H H 0.031077272627183627 -0.03839180124310777 0.45021596268877556 0.0
O O 0.32829073004350884 -0.0374543081148166 0.8811546423093309 0.0
H H 0.30344073004350886 0.021555691885183404 0.897114642309331 0.0
C C 0.2934959382370388 -0.09820222593099638 0.8477858160184346 0.0
H H 0.2697359382370388 -0.1404912259309964 0.8859258160184346 0.0
C C 0.4079275192002838 -0.16130048082594295 0.8745610389695088 0.0
H H 0.06696526301045534 0.11104920734741532 0.06392312623787562 0.0
H H 0.06696526301045534 0.11104920734741532 0.06392312623787562 0.0
H H 0.39244751920028376 -0.25668248082594286 0.8459510389695087 0.0
H H 0.08662912656954788 0.47872790339599375 0.22437735722732352 0.0
Zn Zn -0.1473757780246619 0.2527247797445996 0.22941697695337399 0.0
O O -0.05457916593243326 0.11199557831686531 0.17020763039640885 0.0
O O -0.06959033618312858 0.3425539393165011 0.2727785393423364 0.0
O O -0.14946832855212366 0.20840127456378787 0.1363776725428041 0.0
N N -0.2496354206998915 0.02211583710322823 -0.19189677315882964 0.0
N N -0.20815573823635866 -0.06779087700762988 -0.21529259484313903 0.0
C C -0.19759349309684077 0.07691544755905226 -0.044998314943992285 0.0
H H -0.23006349309684077 0.14383544755905225 -0.03545831494399229 0.0
C C -0.10950833701091697 0.1216704173164249 0.10257758052228919 0.0
C C -0.12853093358082462 0.015677368122852014 0.04505597585746057 0.0
C C -0.10960443061702467 -0.14605027479792881 -0.07235418826670312 0.0
H H -0.07816443061702467 -0.2166702747979288 -0.0812141882667031 0.0
C C -0.2210940226620571 0.018022688356472475 -0.11976406334059658 0.0
C C -0.24884223510291992 -0.03364747358789874 -0.24662700859574566 0.0
C C -0.13926316399741503 -0.06629546492631243 -0.1247170923275565 0.0
C C -0.10558040603288296 -0.07384659758533442 0.016584545747216177 0.0
H H -0.06325040603288296 -0.09486659758533443 0.06192454574721617 0.0
O O -0.3489332363163104 0.06529947719835195 -0.34147513114070155 0.0
H H -0.3240832363163104 0.12430947719835195 -0.3574351311407016 0.0
C C -0.2809553492549923 -0.0599361719066655 -0.3283509616212614 0.0
H H -0.2571953492549923 -0.10222517190666548 -0.3664909616212613 0.0
C C -0.40591740803527887 -0.17676999281181402 -0.36729693311592565 0.0
H H 0.06696526301045534 0.11104920734741532 0.06392312623787562 0.0
H H 0.06696526301045534 0.11104920734741532 0.06392312623787562 0.0
H H -0.3904374080352789 -0.272151992811814 -0.3386869331159258 0.0
H H -0.07056033618312857 0.37423393931650106 0.30621853934233645 0.0
Zn Zn 0.6765531903220469 0.8211188618606095 0.26107560801511254 0.0
Zn Zn 0.49779082072253417 0.7472715097722157 0.2477267750510495 0.0
O O 0.544031717670692 0.5812438721207236 0.31684294534204477 0.0
O O 0.5794879266738261 0.8830954737497333 0.2405285172036447 0.0
O O 0.6431727599543893 0.7631580333332599 0.37308426122749316 0.0
N N 0.767241682836952 0.5444677250338119 0.7075207960896138 0.0
N N 0.7082445744494151 0.43841842218659627 0.7169151206350228 0.0
C C 0.7101317859839318 0.5884087072411767 0.5434285546301826 0.0
H H 0.7426017859839318 0.6553287072411768 0.5338885546301827 0.0
C C 0.6037522154105943 0.66782685544171 0.36901220781485655 0.0
C C 0.646134037837005 0.5428874607518487 0.4825942105691397 0.0
C C 0.6008152139701028 0.375767604776088 0.5726375488703762 0.0
H H 0.5693752139701029 0.305147604776088 0.5814975488703762 0.0
C C 0.7014794919123916 0.49728186494917354 0.6078773472483756 0.0
C C 0.7314469236108746 0.4877448781279917 0.7402215466994606 0.0
C C 0.6386529408503113 0.4550036259539383 0.6258504802808442 0.0
C C 0.5991472731031752 0.48768074095226344 0.48935673848397304 0.0
H H 0.5568172731031751 0.46666074095226334 0.4440167384839731 0.0
O O 0.8660288458782297 0.5460976100052881 0.8335011805083423 0.0
H H 0.8411788458782296 0.6051076100052882 0.8494611805083423 0.0
C C 0.8307919497591397 0.36936892255766973 0.8234261396331021 0.0
H H 0.8070319497591396 0.32707992255766966 0.861566139633102 0.0
C C 0.8866139185185083 0.23531101024060735 0.8533826503832048 0.0
H H 0.06696526301045534 0.11104920734741532 0.06392312623787562 0.0
H H 0.06696526301045534 0.11104920734741532 0.06392312623787562 0.0
H H 0.8711339185185084 0.13992901024060733 0.8247726503832049 0.0
H H 0.5804579266738261 0.9147754737497336 0.20708851720364474 0.0
Zn Zn 0.3381088460305519 0.773239439295393 0.22503376391788069 0.0
O O 0.4632962566218104 0.5652100576506529 0.16541215790372446 0.0
O O 0.43264347635156275 0.8377152487983314 0.2683837810360314 0.0
O O 0.35345340370016426 0.7263325923753381 0.1184377347019676 0.0
N N 0.2230959803833947 0.5362361511201322 -0.1840918329053908 0.0
N N 0.32782760157383734 0.38935518519333456 -0.21071429201809908 0.0
C C 0.3177409535391276 0.6101522864351672 -0.04318016751566754 0.0
H H 0.28527095353912757 0.6770722864351673 -0.03364016751566755 0.0
C C 0.3736277174882798 0.6122617322166924 0.10622848242383813 0.0
C C 0.37200030463344147 0.5817228410714682 0.034322325806818293 0.0
C C 0.39592066345476823 0.3928253335482192 -0.07651139220565221 0.0
H H 0.42736066345476814 0.3222053335482192 -0.0853713922056522 0.0
C C 0.28093161902263797 0.49974488446784854 -0.1261407426534738 0.0
C C 0.244201972932225 0.4646018329742756 -0.23561258896971826 0.0
C C 0.35574318337122884 0.4357479506448013 -0.10265235237627666 0.0
C C 0.42449068717757676 0.5286457001151695 0.011057148077298852 0.0
H H 0.4668206871775768 0.5076257001151696 0.05639714807729884 0.0
O O 0.15798042306661966 0.5271459370555006 -0.36959886457269425 0.0
H H 0.18283042306661967 0.5861559370555006 -0.3855588645726942 0.0
C C 0.2126531902781638 0.3784868814080495 -0.36088002518514595 0.0
H H 0.23641319027816377 0.33619788140804946 -0.3990200251851459 0.0
C C 0.0933124133796376 0.30930278674592676 -0.37055752886611965 0.0
H H 0.06696526301045534 0.11104920734741532 0.06392312623787562 0.0
H H 0.06696526301045534 0.11104920734741532 0.06392312623787562 0.0
H H 0.10879241337963759 0.21392078674592677 -0.3419475288661198 0.0
H H 0.4316734763515628 0.8693952487983315 0.3018237810360314 0.0
Zn Zn -0.16722161437543986 -0.25794199064292983 -0.28795347157059525 0.0
Zn Zn 0.01498577724542387 -0.23510385218346969 -0.25099655520860903 0.0
O O -0.05336097186703383 -0.027993313198528207 -0.3436498733354809 0.0
O O -0.05515878106948731 -0.3273743854232835 -0.19726257590833712 0.0
O O -0.1516187975917692 -0.23008424033555339 -0.38323283889042764 0.0
N N -0.2682720101005853 -0.019566043562067845 -0.7008348592421387 0.0
N N -0.18963770744199804 0.1191113825178104 -0.7272832482571239 0.0
C C -0.18761596083228474 -0.0997268421901254 -0.5244092759333784 0.0
H H -0.22008596083228477 -0.16664684219012538 -0.5148692759333785 0.0
C C -0.11732731161192085 -0.09659774577472903 -0.39435403560165244 0.0
C C -0.1335338317762042 -0.061536587318425096 -0.46575435154522005 0.0
C C -0.06520747756968592 0.10588659410906741 -0.538082589377984 0.0
H H -0.03376747756968592 0.1765065941090674 -0.5469425893779839 0.0
C C -0.21795163394377906 -0.009989218601233828 -0.6106133338478568 0.0
C C -0.2625967216882731 0.02553603150330904 -0.7525756563763933 0.0
C C -0.15681356080577205 0.0726032824124049 -0.6197001352450181 0.0
C C -0.08728073983428784 0.03310131897128217 -0.49740604873562283 0.0
H H -0.04495073983428785 0.054121318971282154 -0.45206604873562284 0.0
O O -0.3291703085728722 -0.11884261466419277 -0.9050655303042309 0.0
H H -0.30432030857287223 -0.1778526146641928 -0.921025530304231 0.0
C C -0.25364250057044113 -0.031824329264188635 -0.8291968840917331 0.0
H H -0.22988250057044113 0.010464670735811359 -0.867336884091733 0.0
C C -0.3594102155762375 0.18541114501078562 -0.8528183639942251 0.0
H H 0.06696526301045534 0.11104920734741532 0.06392312623787562 0.0
H H 0.06696526301045534 0.11104920734741532 0.06392312623787562 0.0
H H -0.3439302155762375 0.2807931450107856 -0.8242083639942251 0.0
H H -0.056128781069487314 -0.35905438542328355 -0.16382257590833715 0.0
Zn Zn 0.1591997570646241 -0.29519673597167684 -0.2291187297520742 0.0
O O 0.06639188631018861 -0.10704581677068527 -0.1773008392891503 0.0
O O 0.06185106265881626 -0.329410647857895 -0.29663536824902764 0.0
O O 0.1587320504045097 -0.23046648353847962 -0.11967304196792261 0.0
N N 0.25640527619745584 -0.0768318988202728 0.17856360950900166 0.0
N N 0.19140198289428723 0.04891821585439281 0.22510867299053836 0.0
C C 0.19668695514042503 -0.05235893984978944 0.049475061412126355 0.0
H H 0.22915695514042508 -0.11927893984978943 0.03993506141212636 0.0
C C 0.127879274279093 -0.10193544879017219 -0.08919719724115005 0.0
C C 0.11914465547546756 -0.09701207761254252 -0.03933934305746873 0.0
C C 0.09273062694511222 0.11722867254434795 0.05417710641959489 0.0
H H 0.061290626945112225 0.18784867254434798 0.06303710641959487 0.0
C C 0.204426628391629 -0.01891551903635028 0.12648672961901833 0.0
C C 0.24384548741934137 0.054849906106503366 0.2503879779950835 0.0
C C 0.15412680740939 0.08701973060742545 0.12369704710532348 0.0
C C 0.09200132420918321 0.06724846885086684 -0.012385513456944091 0.0
H H 0.04967132420918321 0.08826846885086684 -0.05772551345694408 0.0
O O 0.3350142695168834 -0.0645337287198703 0.37640217140109233 0.0
H H 0.31016426951688336 -0.1235437287198703 0.3923621714010923 0.0
C C 0.29911343662084766 0.14857982901055705 0.37709711844945903 0.0
H H 0.27535343662084766 0.19086882901055705 0.415237118449459 0.0
C C 0.37316061718876614 0.21758912586954965 0.36091175715266843 0.0
H H 0.06696526301045534 0.11104920734741532 0.06392312623787562 0.0
H H 0.06696526301045534 0.11104920734741532 0.06392312623787562 0.0
H H 0.3576806171887661 0.31297112586954967 0.3323017571526686 0.0
H H 0.06282106265881625 -0.36109064785789496 -0.3300753682490277 0.0
Zn Zn 0.3371313434818428 0.14208924574456525 -0.2607912864624773 0.0
Zn Zn 0.48714919690402086 0.23270715330935046 -0.26410610598692547 0.0
O O 0.44640311355363294 0.3451988141097274 -0.356570752176748 0.0
O O 0.4445554556995882 0.16783504333903754 -0.21566154111660144 0.0
O O 0.3462390512312825 0.2905425976539507 -0.37237719047541684 0.0
N N 0.23942423240531663 0.5009064202689953 -0.689765689683667 0.0
N N 0.29953410919520385 0.6820492326901616 -0.7127163239267063 0.0
C C 0.3004147116005046 0.39973197124569015 -0.5505100119924983 0.0
H H 0.2679447116005045 0.3328119712456901 -0.5409700119924984 0.0
C C 0.39371391176025083 0.37276735214770235 -0.3996643998024855 0.0
C C 0.35691264506899284 0.43972049434661686 -0.468017947634736 0.0
C C 0.39602047993443595 0.6662498811899318 -0.5637404058268474 0.0
H H 0.4274604799344358 0.7368698811899319 -0.5726004058268473 0.0
C C 0.3015827627554365 0.5142440656519847 -0.6098603067979839 0.0
C C 0.2763722256927118 0.520309098742381 -0.7468879389910392 0.0
C C 0.3423263630314827 0.5635448975641445 -0.6213984373930997 0.0
C C 0.40434150059804597 0.5219201153666774 -0.4670069768390675 0.0
H H 0.446671500598046 0.5429401153666774 -0.4216669768390675 0.0
O O 0.18452194881136508 0.5172051008218751 -0.8455798708401472 0.0
H H 0.20937194881136506 0.4581951008218751 -0.8615398708401473 0.0
C C 0.21868031792071824 0.53065438120421 -0.8474590402786794 0.0
H H 0.24244031792071827 0.5729433812042101 -0.8855990402786793 0.0
C C 0.12439139289015717 0.7007841866462504 -0.8378066190234533 0.0
H H 0.06696526301045534 0.11104920734741532 0.06392312623787562 0.0
H H 0.06696526301045534 0.11104920734741532 0.06392312623787562 0.0
H H 0.1398713928901572 0.7961661866462506 -0.8091966190234534 0.0
H H 0.4435854556995882 0.13615504333903755 -0.18222154111660144 0.0
Zn Zn 0.6710715117911211 0.1855256394238583 -0.2296574801802361 0.0
O O 0.554981694717684 0.37241059875642835 -0.15792193181645556 0.0
O O 0.5833897696800058 0.11898892656286734 -0.287205869879965 0.0
O O 0.6696077769027987 0.19599269918092074 -0.11514177975032282 0.0
N N 0.7719812568007782 0.4323729687488475 0.18408062927247204 0.0
N N 0.6887712197946924 0.5331213406772835 0.2090104596451832 0.0
C C 0.6916371154315123 0.40485794001438885 0.05107397669044186 0.0
H H 0.7241071154315122 0.33793794001438887 0.041533976690441864 0.0
C C 0.5940323392000343 0.33942756148366593 -0.10226184776602229 0.0
C C 0.6415872376032585 0.49442715643887725 -0.020604528237241192 0.0
C C 0.6304606045903858 0.5713563945644957 0.09326570204415947 0.0
H H 0.5990206045903856 0.6419763945644957 0.10212570204415945 0.0
C C 0.7086045172961994 0.4322676665383333 0.1267230123252272 0.0
C C 0.748762007470073 0.5821919343931209 0.25961956726851315 0.0
C C 0.6768998390207257 0.6434891974364093 0.13574975762248423 0.0
C C 0.6022141982705662 0.5281529033194541 0.004068574056115431 0.0
H H 0.5598841982705662 0.549172903319454 -0.04127142594388456 0.0
O O 0.8630834555837926 0.45836206350465736 0.37445021461050626 0.0
H H 0.8382334555837926 0.39935206350465724 0.39041021461050623 0.0
C C 0.8261776405149616 0.5934253350700888 0.36327824528082403 0.0
H H 0.8024176405149617 0.6357143350700888 0.401418245280824 0.0
C C 0.8884489948716491 0.7052690196847223 0.3716914579924036 0.0
H H 0.06696526301045534 0.11104920734741532 0.06392312623787562 0.0
H H 0.06696526301045534 0.11104920734741532 0.06392312623787562 0.0
H H 0.8729689948716493 0.8006510196847225 0.34308145799240375 0.0
H H 0.5843597696800058 0.08730892656286734 -0.320645869879965 0.0
