_cell_length_a 20.4364
_cell_length_b 9.005017
_cell_length_c 16.6723
_cell_angle_alpha 90.0
_cell_angle_beta 110.2303
_cell_angle_gamma 90.0
_symmetry_space_group_name_H-M         'P 1'
_symmetry_Int_Tables_number            1
loop_
_symmetry_equiv_pos_as_xyz
   'x, y, z'
                         
loop_
_atom_site_label
_atom_site_type_symbol
_atom_site_fract_x 
_atom_site_fract_y
_atom_site_fract_z
_atom_site_charge
Zn Zn 0.17857369355567837 0.2956011462128636 0.28473913625786734 0.0
Zn Zn 0.0021707296368887238 0.20761050345158696 0.2515522651945445 0.0
O O 0.04913432436900143 0.12481381735389836 0.33524468620475334 0.0
O O 0.06112694772826099 0.3410803469828876 0.2067290017720171 0.0
O O 0.1610549972380742 0.28151010738071647 0.38363744932967886 0.0
N N 0.26996140880013453 0.08361542793027006 0.6971657962353642 0.0
N N 0.2154472744547817 -0.1611373447761298 0.7141954377857586 0.0
C C 0.20773923206371733 0.13067627971422555 0.554557420413905 0.0
H H 0.24020923206371736 0.19759627971422553 0.5450174204139051 0.0
C C 0.11848228631523995 0.12814006967803032 0.39990090533155814 0.0
C C 0.1374483025774368 0.06488251656434152 0.46963762750131044 0.0
C C 0.10541461434298617 -0.1766785788153689 0.557972350663798 0.0
H H 0.07397461434298616 -0.24729857881536887 0.5668323506637979 0.0
C C 0.2091701228096546 0.07133029939309027 0.6235086699792349 0.0
C C 0.24183207386856387 -0.028724084182140144 0.7430833528846696 0.0
C C 0.15749268592130938 -0.12878918548111598 0.6451445883264225 0.0
C C 0.08765484285398653 -0.05679952027818472 0.4922321251647118 0.0
H H 0.045324842853986524 -0.0778195202781847 0.44689212516471183 0.0
O O 0.30071381928473206 0.13831707566547277 0.8865811838562758 0.0
H H 0.275863819284732 0.19732707566547275 0.9025411838562759 0.0
C C 0.2925141226486382 -0.11237046118512377 0.8172769251347112 0.0
H H 0.2687541226486382 -0.15465946118512378 0.8554169251347111 0.0
C C 0.39553196871490326 -0.15893493320115606 0.8817095820518754 0.0
H H 0.06696526301045534 0.11104920734741532 0.06392312623787562 0.0
H H 0.06696526301045534 0.11104920734741532 0.06392312623787562 0.0
H H 0.3800519687149032 -0.254316933201156 0.8530995820518755 0.0
H H 0.06209694772826099 0.3727603469828876 0.17328900177201714 0.0
Zn Zn -0.1727472292969618 0.297544137076463 0.21720166001622818 0.0
O O -0.05498505421625026 0.06462542663056821 0.13965263327155022 0.0
O O -0.08370578175801051 0.3093229545304069 0.2752890299274344 0.0
O O -0.16452084726534522 0.2095304646128127 0.11099104213031277 0.0
N N -0.26229884720199925 0.0016409430109852279 -0.21609505164857448 0.0
N N -0.19551853024608756 -0.15345610191210415 -0.21124152155712705 0.0
C C -0.1974176761916196 0.12831625061612456 -0.050695739033578775 0.0
H H -0.22988767619161962 0.19523625061612454 -0.04115573903357878 0.0
C C -0.12930146420930805 0.11449245519167447 0.09356518631208613 0.0
C C -0.13805966223191196 0.07215223049682705 0.039022479672021604 0.0
C C -0.08880103394207872 -0.1571548117722394 -0.06024274377626834 0.0
H H -0.05736103394207871 -0.22777481177223935 -0.06910274377626832 0.0
C C -0.20768099953654337 0.027744906265072866 -0.13440776676988136 0.0
C C -0.24691908809509247 -0.08221852701344891 -0.24782693359758776 0.0
C C -0.14475406789931267 -0.11738462630842729 -0.13235973483415892 0.0
C C -0.08377571107248552 0.00972527081063288 0.035971633908081634 0.0
H H -0.041445711072485514 -0.01129472918936711 0.08131163390808163 0.0
O O -0.3270292873111219 0.028782190824422793 -0.36753725812053956 0.0
H H -0.30217928731112187 0.08779219082442279 -0.3834972581205396 0.0
C C -0.3030708945230585 -0.035301606247229576 -0.32932467392835085 0.0
H H -0.2793108945230585 -0.07759060624722956 -0.3674646739283508 0.0
C C -0.3884555556976041 -0.17906807314079967 -0.371173161974438 0.0
H H 0.06696526301045534 0.11104920734741532 0.06392312623787562 0.0
H H 0.06696526301045534 0.11104920734741532 0.06392312623787562 0.0
H H -0.37297555569760416 -0.2744500731407997 -0.34256316197443815 0.0
H H -0.08467578175801051 0.3410029545304069 0.30872902992743445 0.0
Zn Zn 0.6604302381153283 0.8307835967252342 0.2726146310330942 0.0
Zn Zn 0.4886410660949063 0.752812175066304 0.23579291590394036 0.0
O O 0.5388202473156355 0.6089022989974677 0.3176522391890799 0.0
O O 0.5747599452281033 0.9294675879502076 0.24810428139093674 0.0
O O 0.6502552980741861 0.7044101523353394 0.3592806717457722 0.0
N N 0.7655261648579595 0.5187676355067247 0.6678036619001776 0.0
N N 0.6963038963685868 0.3484375940311204 0.7130091497066787 0.0
C C 0.6893137830292801 0.5885937461766476 0.5250910863138604 0.0
H H 0.7217837830292803 0.6555137461766477 0.5155510863138605 0.0
C C 0.6349170943561575 0.6596388612555875 0.41889994990911916 0.0
C C 0.6173610139392536 0.5197570578972115 0.4700372635285501 0.0
C C 0.5570026616442453 0.37376905280879846 0.548133565095738 0.0
H H 0.5255626616442453 0.30314905280879845 0.5569935650957378 0.0
C C 0.7256372153643553 0.526045781302198 0.6315532686123146 0.0
C C 0.741733304113678 0.5091944345522211 0.761350452489141 0.0
C C 0.663203839513974 0.44795619407342163 0.629118512027441 0.0
C C 0.5801542112779557 0.49921109762108806 0.48684923709665706 0.0
H H 0.5378242112779557 0.478191097621088 0.44150923709665707 0.0
O O 0.8141464678331554 0.5607666148034826 0.8984569055322665 0.0
H H 0.7892964678331553 0.6197766148034826 0.9144169055322665 0.0
C C 0.7934682616874413 0.4626143571889528 0.8579708975012058 0.0
H H 0.7697082616874413 0.42032535718895275 0.8961108975012056 0.0
C C 0.8574032489958796 0.2741041500826696 0.821956646112762 0.0
H H 0.06696526301045534 0.11104920734741532 0.06392312623787562 0.0
H H 0.06696526301045534 0.11104920734741532 0.06392312623787562 0.0
H H 0.8419232489958798 0.17872215008266953 0.7933466461127621 0.0
H H 0.5757299452281033 0.9611475879502077 0.21466428139093677 0.0
Zn Zn 0.33086834923490316 0.822015896916937 0.2377405475140722 0.0
O O 0.4211842687783643 0.5965331554519105 0.14115027409524128 0.0
O O 0.4254362092478233 0.8617892217078744 0.2857798285519199 0.0
O O 0.34398776225875954 0.7024512702541454 0.11625494956289384 0.0
N N 0.24730640144868396 0.5527354416445939 -0.20768255820681156 0.0
N N 0.30836097382922845 0.39717004337446665 -0.1962336472968617 0.0
C C 0.3017603975633879 0.6130259071292752 -0.047533167291116646 0.0
H H 0.26929039756338785 0.6799459071292753 -0.03799316729111665 0.0
C C 0.35978238460560463 0.636671888837961 0.10756251764641613 0.0
C C 0.36541680721507225 0.5935696032667321 0.011092236610432082 0.0
C C 0.38272460343533 0.35635994618000477 -0.0692755494062427 0.0
H H 0.41416460343532996 0.2857399461800047 -0.07813554940624268 0.0
C C 0.27892860859272706 0.49798215388779016 -0.12878089044151875 0.0
C C 0.2506820781558402 0.44207546856266644 -0.24894427191203805 0.0
C C 0.34748170356283087 0.4076619816449057 -0.13238471346271985 0.0
C C 0.41328971434893713 0.46985242568745683 0.005502646602960997 0.0
H H 0.45561971434893717 0.44883242568745685 0.05084264660296099 0.0
O O 0.1486631051807217 0.5563126153263287 -0.3754194834680043 0.0
H H 0.17351310518072172 0.6153226153263287 -0.39137948346800433 0.0
C C 0.19443432179533818 0.3775471693634579 -0.34521061087072524 0.0
H H 0.21819432179533815 0.3352581693634578 -0.3833506108707252 0.0
C C 0.13588725518277248 0.358522798928834 -0.35587331767271696 0.0
H H 0.06696526301045534 0.11104920734741532 0.06392312623787562 0.0
H H 0.06696526301045534 0.11104920734741532 0.06392312623787562 0.0
H H 0.15136725518277247 0.26314079892883396 -0.32726331767271705 0.0
H H 0.42446620924782336 0.8934692217078744 0.31921982855191994 0.0
Zn Zn -0.14946491110589974 -0.33191299223487114 -0.2643345039025065 0.0
Zn Zn 0.003931865057808598 -0.24622511255101684 -0.2587311472568382 0.0
O O -0.04192549203908003 -0.15157736097157132 -0.36114276670749546 0.0
O O -0.07204520623746064 -0.3502794329612532 -0.22221530416874136 0.0
O O -0.15301323514733306 -0.2384919114218977 -0.38455946289330645 0.0
N N -0.27951003102525673 -0.04681386694306572 -0.6845925931225755 0.0
N N -0.21453391858393447 0.12076718764369075 -0.7101647187038185 0.0
C C -0.17663955471275175 -0.09261086224470079 -0.5174083610833405 0.0
H H -0.20910955471275178 -0.15953086224470076 -0.5078683610833407 0.0
C C -0.1245495497929042 -0.09822140471304747 -0.41893535771066615 0.0
C C -0.12192455420024674 -0.051819535918227806 -0.4949774527129802 0.0
C C -0.0987450759866794 0.14569271900406336 -0.5304609511950531 0.0
H H -0.06730507598667938 0.21631271900406335 -0.5393209511950531 0.0
C C -0.2301362562270807 0.02530521719261221 -0.6145882147741498 0.0
C C -0.27214112307952376 0.08218786828615467 -0.7476409528044973 0.0
C C -0.15785331279526263 0.04204335073007593 -0.649708258846615 0.0
C C -0.11226771358895477 -0.011403961282897751 -0.4867767635469911 0.0
H H -0.06993771358895477 0.009616038717102237 -0.44143676354699113 0.0
O O -0.2860419030977022 -0.17336025202023733 -0.8920212842978341 0.0
H H -0.2611919030977022 -0.2323702520202373 -0.9079812842978342 0.0
C C -0.2871543243954173 0.12941368135510015 -0.8223632066106358 0.0
H H -0.2633943243954173 0.17170268135510014 -0.8605032066106357 0.0
C C -0.38202563719876537 0.0371845968222224 -0.9025050502886626 0.0
H H 0.06696526301045534 0.11104920734741532 0.06392312623787562 0.0
H H 0.06696526301045534 0.11104920734741532 0.06392312623787562 0.0
H H -0.36654563719876543 0.13256659682222238 -0.8738950502886627 0.0
H H -0.07301520623746063 -0.3819594329612532 -0.18877530416874136 0.0
Zn Zn 0.1665415577715403 -0.28599042034505695 -0.2238610951405221 0.0
O O 0.06848028151884039 -0.08270177308939615 -0.13732144076133387 0.0
O O 0.06445350605740555 -0.424166453404582 -0.2876919260213512 0.0
O O 0.1583214855759121 -0.23766106261162812 -0.11005593172805302 0.0
N N 0.2667693027297655 -0.0429100187748378 0.21115922475778542 0.0
N N 0.19826784388751717 0.07223440336820731 0.2239215310490089 0.0
C C 0.18965756250436108 -0.14778507932526228 0.03717249229501377 0.0
H H 0.22212756250436105 -0.21470507932526228 0.027632492295013772 0.0
C C 0.09185928702103652 -0.1472076891806344 -0.12316421555900474 0.0
C C 0.12634140315710862 -0.0573898543944732 -0.024291931258051017 0.0
C C 0.08987120428960725 0.11641470546946732 0.07423842822180403 0.0
H H 0.05843120428960724 0.18703470546946732 0.08309842822180402 0.0
C C 0.21098920339433738 -0.01679749841964273 0.10376359186079838 0.0
C C 0.2576306085121029 0.06678471689196774 0.25214547551356714 0.0
C C 0.1630699921281611 0.09293754046234727 0.14539954832885807 0.0
C C 0.09635866461162158 0.014370609542850505 -0.02035275958137878 0.0
H H 0.054028664611621584 0.03539060954285049 -0.06569275958137877 0.0
O O 0.3586915162707903 -0.12068125596565502 0.3605881789128276 0.0
H H 0.33384151627079034 -0.179691255965655 0.37654817891282755 0.0
C C 0.297778582132771 0.06912873277891768 0.327060787293949 0.0
H H 0.27401858213277097 0.11141773277891766 0.36520078729394895 0.0
C C 0.3768311840956488 0.2252670339675207 0.3450011959022755 0.0
H H 0.06696526301045534 0.11104920734741532 0.06392312623787562 0.0
H H 0.06696526301045534 0.11104920734741532 0.06392312623787562 0.0
H H 0.36135118409564887 0.3206490339675207 0.31639119590227566 0.0
H H 0.06542350605740554 -0.45584645340458196 -0.3211319260213512 0.0
Zn Zn 0.347940921440684 0.23551685496863364 -0.2591372836917792 0.0
Zn Zn 0.4842290249528971 0.2053240547282406 -0.2729096102759954 0.0
O O 0.427939740324039 0.40498817256439007 -0.3312080541030677 0.0
O O 0.41717516185049036 0.14905127639356186 -0.21836748260555358 0.0
O O 0.35499958510491 0.2819118945433623 -0.35906119877227927 0.0
N N 0.24974999155306857 0.5143055710853551 -0.6933861380765697 0.0
N N 0.3145581790418307 0.639453946828946 -0.7060627380243157 0.0
C C 0.28388917162991584 0.3823668656309979 -0.537105836307974 0.0
H H 0.2514191716299158 0.31544686563099794 -0.5275658363079742 0.0
C C 0.39486109879000963 0.3689349005345804 -0.3863548386015314 0.0
C C 0.33766898854712274 0.4342262805830318 -0.4838845683295288 0.0
C C 0.3848078779553234 0.5907596152536132 -0.5951987727129162 0.0
H H 0.4162478779553232 0.6613796152536132 -0.6040587727129162 0.0
C C 0.2902167244922007 0.5707414701044017 -0.6124078368081743 0.0
C C 0.2624466778746697 0.4444373656030638 -0.7628225943473568 0.0
C C 0.33653333374220135 0.5499165469615599 -0.6405662626410373 0.0
C C 0.4360028990845895 0.5531835460066296 -0.49176801953417326 0.0
H H 0.4783328990845894 0.5742035460066295 -0.4464280195341733 0.0
O O 0.16158438151883966 0.5149652087728114 -0.8303154996151483 0.0
H H 0.18643438151883965 0.4559552087728112 -0.8462754996151484 0.0
C C 0.2220780305605482 0.6229251072444681 -0.815495131858636 0.0
H H 0.24583803056054823 0.6652141072444682 -0.8536351318586359 0.0
C C 0.1202304142012297 0.794873837595465 -0.8049815064673858 0.0
H H 0.06696526301045534 0.11104920734741532 0.06392312623787562 0.0
H H 0.06696526301045534 0.11104920734741532 0.06392312623787562 0.0
H H 0.13571041420122967 0.8902558375954652 -0.7763715064673858 0.0
H H 0.4162051618504904 0.11737127639356187 -0.18492748260555358 0.0
Zn Zn 0.6528048283221671 0.18721692941780757 -0.23578160410605448 0.0
O O 0.5688941847954478 0.35395079521202405 -0.1726951365277308 0.0
O O 0.5602742572554842 0.15489747681790966 -0.28067085891305277 0.0
O O 0.6755852200264726 0.26413702599449135 -0.13006295894438338 0.0
N N 0.7610818782665354 0.442642084120636 0.20756641632846867 0.0
N N 0.6629148631329709 0.6561072231709593 0.2112787017469534 0.0
C C 0.6784862714427856 0.38254906423394247 0.042717963448842336 0.0
H H 0.7109562714427855 0.3156290642339425 0.03317796344884234 0.0
C C 0.6291200773362019 0.3535508070753874 -0.10437541277494737 0.0
C C 0.6329602421443848 0.44685363842333087 -0.02908209850817575 0.0
C C 0.5812929686269289 0.659628908921666 0.02256080006447416 0.0
H H 0.5498529686269289 0.7302489089216662 0.03142080006447414 0.0
C C 0.7024858393675942 0.5001875570591569 0.1259041287222412 0.0
C C 0.7213079706770673 0.558225620903417 0.2335265081123468 0.0
C C 0.6653522787576047 0.6013866688415067 0.11987446076699294 0.0
C C 0.5807004102338091 0.5242821433972444 -0.012235733437610002 0.0
H H 0.5383704102338092 0.5453021433972444 -0.057575733437609994 0.0
O O 0.8431658561583173 0.5120255610593871 0.35037490562333334 0.0
H H 0.8183158561583173 0.45301556105938706 0.3663349056233333 0.0
C C 0.8201706649319213 0.5689448723384813 0.31143535820897006 0.0
H H 0.7964106649319214 0.6112338723384814 0.34957535820897 0.0
C C 0.8798597262532876 0.6768688277089154 0.3359364725678453 0.0
H H 0.06696526301045534 0.11104920734741532 0.06392312623787562 0.0
H H 0.06696526301045534 0.11104920734741532 0.06392312623787562 0.0
H H 0.8643797262532877 0.7722508277089155 0.30732647256784545 0.0
H H 0.5612442572554842 0.12321747681790965 -0.3141108589130528 0.0
