_cell_length_a 20.4364
_cell_length_b 9.005017
_cell_length_c 16.6723
_cell_angle_alpha 90.0
_cell_angle_beta 110.2303
_cell_angle_gamma 90.0
_symmetry_space_group_name_H-M         'P 1'
_symmetry_Int_Tables_number            1
loop_
_symmetry_equiv_pos_as_xyz
   'x, y, z'
                         
loop_
_atom_site_label
_atom_site_type_symbol
_atom_site_fract_x 
_atom_site_fract_y
_atom_site_fract_z
_atom_site_charge
Zn Zn 0.14573791076552073 0.3616982549017524 0.2608495684308592 0.0
Zn Zn 0.0022934267659251535 0.24087810266065457 0.253061357688959 0.0
O O 0.05122330207845593 0.1379133151194225 0.3381774507380735 0.0
O O 0.0638648929057915 0.3287292552956689 0.20033247171906873 0.0
O O 0.17441514255267102 0.1825870324181053 0.385361793956364 0.0
N N 0.25708144595766624 0.030179429908457935 0.6745686165010981 0.0
N N 0.17679833282053906 -0.12769059727071203 0.7171819508587028 0.0
C C 0.20498334856518968 0.06703173684616193 0.5653592112752327 0.0
H H 0.2374533485651897 0.1339517368461619 0.5558192112752328 0.0
C C 0.10516563608077827 0.13032747177117968 0.3774202495764571 0.0
C C 0.12383854405460977 0.10739210522121619 0.460018920601303 0.0
C C 0.09311043641183131 -0.1575037925025248 0.5559667264314924 0.0
H H 0.06167043641183129 -0.22812379250252482 0.5648267264314923 0.0
C C 0.21410046802130245 0.07392661022607923 0.6251763734847205 0.0
C C 0.2709777298593653 -0.08280876029167246 0.7345836433082489 0.0
C C 0.16575577087531806 -0.05511406309769689 0.6148439492302729 0.0
C C 0.09805945572914163 -0.14527026997849443 0.4784919646548177 0.0
H H 0.05572945572914161 -0.1662902699784944 0.4331519646548177 0.0
O O 0.32921795984809465 0.033920182138778794 0.8246908890663134 0.0
H H 0.3043679598480946 0.09293018213877881 0.8406508890663135 0.0
C C 0.27555881476944716 -0.11674191151577813 0.8151085931279733 0.0
H H 0.25179881476944715 -0.15903091151577814 0.8532485931279733 0.0
C C 0.3703083404487194 -0.136148488763358 0.8505851784913895 0.0
H H 0.06696526301045534 0.11104920734741532 0.06392312623787562 0.0
H H 0.06696526301045534 0.11104920734741532 0.06392312623787562 0.0
H H 0.3548283404487194 -0.23153048876335797 0.8219751784913896 0.0
H H 0.0648348929057915 0.3604092552956689 0.16689247171906874 0.0
Zn Zn -0.17294495053111927 0.3294732369221876 0.2198420991165819 0.0
O O -0.049152263620502575 0.09387707368928477 0.15874890338601436 0.0
O O -0.07462916978773952 0.32909678518253255 0.27039905376566353 0.0
O O -0.1628725228005939 0.23604143415186435 0.12487744897576228 0.0
N N -0.27304762914013847 0.04419027632411542 -0.20222945344703294 0.0
N N -0.20573590266305972 -0.10456477600814797 -0.21395098265486606 0.0
C C -0.2033083949028583 0.15046869887716152 -0.04493109531003888 0.0
H H -0.23577839490285832 0.21738869887716153 -0.03539109531003889 0.0
C C -0.11668936733120326 0.13562639311002117 0.11052692458342298 0.0
C C -0.12991434104420596 0.05885216257168242 0.035472257096720146 0.0
C C -0.09734778646593971 -0.06003318316076642 -0.06098754722572791 0.0
H H -0.06590778646593971 -0.1306531831607664 -0.06984754722572789 0.0
C C -0.2219355262796939 0.05485546153525895 -0.10059490030534067 0.0
C C -0.255595949937498 -0.03350962284916676 -0.25699977398467244 0.0
C C -0.1541736774515171 -0.08533719695191995 -0.11686186130275159 0.0
C C -0.06574942552341502 -0.020517156226749295 0.014737681242148906 0.0
H H -0.023419425523415027 -0.041537156226749285 0.0600776812421489 0.0
O O -0.3381869513130103 0.07408362329473164 -0.3621513178426671 0.0
H H -0.31333695131301026 0.13309362329473165 -0.37811131784266705 0.0
C C -0.32535469957509033 -0.07624925301241088 -0.3562960017598965 0.0
H H -0.30159469957509033 -0.11853825301241087 -0.39443600175989646 0.0
C C -0.39618966900605146 -0.24020196408559194 -0.3527559525342546 0.0
H H 0.06696526301045534 0.11104920734741532 0.06392312623787562 0.0
H H 0.06696526301045534 0.11104920734741532 0.06392312623787562 0.0
H H -0.3807096690060515 -0.335583964085592 -0.32414595253425477 0.0
H H -0.0755991697877395 0.3607767851825326 0.30383905376566356 0.0
Zn Zn 0.6619474436706664 0.7961287395338151 0.27372032210018493 0.0
Zn Zn 0.4988642665736734 0.7816509874210502 0.24326726652374622 0.0
O O 0.5441828708852704 0.6633174032486794 0.3601406734300482 0.0
O O 0.5230538542554003 0.782855391413356 0.16179932811833006 0.0
O O 0.6596216017074967 0.8505120490900581 0.3861961938092924 0.0
N N 0.7370976791519871 0.5954017278770019 0.7098794352610441 0.0
N N 0.6937814708678385 0.41077591053025203 0.7306377723953327 0.0
C C 0.6779795717032516 0.5910107865873049 0.5192626568488871 0.0
H H 0.7104495717032516 0.657930786587305 0.5097226568488872 0.0
C C 0.6052981267199863 0.6283706206570209 0.3824480392854495 0.0
C C 0.6446841597283752 0.6002268032801533 0.47364854401784673 0.0
C C 0.6301592145372383 0.4223790390037321 0.5774941971711488 0.0
H H 0.5987192145372384 0.35175903900373207 0.5863541971711487 0.0
C C 0.7167475316144526 0.543726026205366 0.634641733278831 0.0
C C 0.7567532829608662 0.4624558708760847 0.7408295483626485 0.0
C C 0.6587716204054267 0.3966241686819703 0.6207877659590143 0.0
C C 0.5831994456498498 0.4855047393755432 0.5108024422449429 0.0
H H 0.5408694456498497 0.4644847393755432 0.46546244224494293 0.0
O O 0.8162000404011576 0.4937629409503105 0.8384611895729085 0.0
H H 0.7913500404011575 0.5527729409503105 0.8544211895729086 0.0
C C 0.8253421484068639 0.4638531221574158 0.8562166092232315 0.0
H H 0.801582148406864 0.4215641221574158 0.8943566092232315 0.0
C C 0.874234775517035 0.34136085066120914 0.8369232324572738 0.0
H H 0.06696526301045534 0.11104920734741532 0.06392312623787562 0.0
H H 0.06696526301045534 0.11104920734741532 0.06392312623787562 0.0
H H 0.8587547755170352 0.24597885066120911 0.8083132324572739 0.0
H H 0.5240238542554003 0.8145353914133562 0.1283593281183301 0.0
Zn Zn 0.34593050398036057 0.8198127394199846 0.2206058450703495 0.0
O O 0.4418430693553469 0.6066850707249329 0.16595051747895995 0.0
O O 0.4308681583529391 0.8273823107163774 0.2621230769122978 0.0
O O 0.3377641666871193 0.717060374207987 0.10075988358454839 0.0
N N 0.2275494677485266 0.5935818950809909 -0.1853808522458314 0.0
N N 0.3146520161626221 0.39274168730164505 -0.2304363496077315 0.0
C C 0.2970280321267864 0.600195731934611 -0.036791973764927315 0.0
H H 0.2645580321267864 0.667115731934611 -0.02725197376492732 0.0
C C 0.39653894717840044 0.6261373993756147 0.11568478309981213 0.0
C C 0.3675603507485472 0.5962758798135845 0.023638010899899906 0.0
C C 0.38916724218221954 0.3904952477750727 -0.07199444882078855 0.0
H H 0.4206072421822195 0.3198752477750727 -0.08085444882078853 0.0
C C 0.29877115862385084 0.5651208467830937 -0.12384418216701842 0.0
C C 0.2575111350425536 0.46704377488550547 -0.24036141334246047 0.0
C C 0.32963630811651834 0.4079161588773291 -0.13146079779747583 0.0
C C 0.4097385007594618 0.46868713196127787 -0.001114571703803014 0.0
H H 0.45206850075946176 0.44766713196127794 0.044225428296196974 0.0
O O 0.1533154020750659 0.5715996971457592 -0.4107258230142172 0.0
H H 0.17816540207506595 0.6306096971457592 -0.42668582301421715 0.0
C C 0.230935538630803 0.35765592132239366 -0.35527701574561343 0.0
H H 0.25469553863080296 0.31536692132239363 -0.3934170157456134 0.0
C C 0.13703385247698324 0.3559041533688418 -0.33409040914520227 0.0
H H 0.06696526301045534 0.11104920734741532 0.06392312623787562 0.0
H H 0.06696526301045534 0.11104920734741532 0.06392312623787562 0.0
H H 0.15251385247698324 0.26052215336884177 -0.3054804091452024 0.0
H H 0.42989815835293915 0.8590623107163775 0.29556307691229783 0.0
Zn Zn -0.1643301710629189 -0.308056292865414 -0.2617120672565458 0.0
Zn Zn 0.015417013901360781 -0.24729950509858162 -0.25880458280749224 0.0
O O -0.05767522205319487 -0.08862230386809111 -0.35115662123540187 0.0
O O -0.06876861316584183 -0.3336014934793323 -0.21364409602362014 0.0
O O -0.14663035797139687 -0.19799541860699732 -0.3778779188715565 0.0
N N -0.29019384662985065 -0.024184639795120373 -0.7010728158433396 0.0
N N -0.2001393634843365 0.12316715065301641 -0.7288836440630134 0.0
C C -0.21268337213476965 -0.07749624824513646 -0.5656554154104338 0.0
H H -0.24515337213476968 -0.1444162482451364 -0.556115415410434 0.0
C C -0.11067149457722764 -0.09013597926400657 -0.3934110564939304 0.0
C C -0.1419858159684389 -0.04721132374700463 -0.47726361825862623 0.0
C C -0.1068482145911411 0.13234493723026536 -0.5876542519090886 0.0
H H -0.07540821459114108 0.20296493723026537 -0.5965142519090886 0.0
C C -0.1909893923600409 0.002277945019558991 -0.603848848207487 0.0
C C -0.2519890047367012 0.07500083482886034 -0.7535866706170775 0.0
C C -0.18160967915441978 0.06549270493087093 -0.6616313578168677 0.0
C C -0.07832538605239024 0.04134165822788958 -0.47749583204934193 0.0
H H -0.035995386052390235 0.06236165822788957 -0.43215583204934194 0.0
O O -0.3508017529624015 0.06750359809768963 -0.8402391973120311 0.0
H H -0.3259517529624015 0.00849359809768963 -0.8561991973120311 0.0
C C -0.3180271648430799 0.16051659918324557 -0.8172369382217098 0.0
H H -0.2942671648430799 0.2028055991832456 -0.8553769382217098 0.0
C C -0.3862237526482962 0.1718083562627087 -0.9281955237129377 0.0
H H 0.06696526301045534 0.11104920734741532 0.06392312623787562 0.0
H H 0.06696526301045534 0.11104920734741532 0.06392312623787562 0.0
H H -0.37074375264829623 0.2671903562627087 -0.8995855237129378 0.0
H H -0.06973861316584185 -0.3652814934793323 -0.18020409602362017 0.0
Zn Zn 0.15431283465255877 -0.3200739638501876 -0.23143199137949225 0.0
O O 0.055283828167857145 -0.11840714372783598 -0.1715101569127719 0.0
O O 0.057480282280916686 -0.37240416490424044 -0.2693346307122746 0.0
O O 0.15422923024954682 -0.2842330111829246 -0.11541284022340673 0.0
N N 0.24607131464728985 -0.026275238227622805 0.19486356153274284 0.0
N N 0.220622316400338 0.1301521399098541 0.21880311898322094 0.0
C C 0.19419698438092334 -0.1377135921317621 0.03055042099838092 0.0
H H 0.2266669843809233 -0.2046335921317621 0.02101042099838093 0.0
C C 0.11924830687371588 -0.13333234721135184 -0.11686677442115988 0.0
C C 0.13869550989305204 -0.04456928077708051 -0.005672376699295585 0.0
C C 0.10207970077679732 0.05678977287058342 0.07250683301372482 0.0
H H 0.07063970077679732 0.12740977287058342 0.08136683301372481 0.0
C C 0.20011735676967207 -0.030889199203879506 0.1138439558487258 0.0
C C 0.22292257318374922 0.12213121051111275 0.23881352247874427 0.0
C C 0.16401999342110807 0.08104727087186585 0.1301075047161744 0.0
C C 0.08038653172914034 -0.05106651251285369 0.00905194846655683 0.0
H H 0.03805653172914036 -0.0300465125128537 -0.03628805153344316 0.0
O O 0.32335143025680163 -0.10092539860011208 0.3567135590430256 0.0
H H 0.2985014302568016 -0.15993539860011208 0.37267355904302557 0.0
C C 0.29698390758574456 0.07109344164691113 0.34327054783580585 0.0
H H 0.2732239075857446 0.11338244164691112 0.3814105478358058 0.0
C C 0.3242621907875741 0.15023362943854188 0.30639069653644424 0.0
H H 0.06696526301045534 0.11104920734741532 0.06392312623787562 0.0
H H 0.06696526301045534 0.11104920734741532 0.06392312623787562 0.0
H H 0.30878219078757413 0.2456156294385419 0.2777806965364444 0.0
H H 0.05845028228091668 -0.40408416490424043 -0.3027746307122747 0.0
Zn Zn 0.3524190679509432 0.20663471225038083 -0.2708102649384249 0.0
Zn Zn 0.5237758609842472 0.20134227902958768 -0.24938501370031388 0.0
O O 0.4410629146958538 0.39342066032504025 -0.33290459621557345 0.0
O O 0.4517178548299596 0.1825395888955151 -0.2161046114038296 0.0
O O 0.3412592327985844 0.27391704414985524 -0.3721481775081427 0.0
N N 0.22112641802249222 0.42834325437914383 -0.6673704284244666 0.0
N N 0.311816362132802 0.6369491632441553 -0.6965635173134247 0.0
C C 0.3027065216874105 0.41975163591909154 -0.5507246650280213 0.0
H H 0.27023652168741047 0.3528316359190915 -0.5411846650280214 0.0
C C 0.38519967551507983 0.383156448739611 -0.4018041886975509 0.0
C C 0.3684604920280084 0.45907983747367653 -0.4607123959094744 0.0
C C 0.3974859820298118 0.6758506769300738 -0.5876517347927936 0.0
H H 0.42892598202981164 0.746470676930074 -0.5965117347927936 0.0
C C 0.2893459303573203 0.5005550619834702 -0.6194666536049251 0.0
C C 0.2811931999103704 0.5727236334354451 -0.748778025932527 0.0
C C 0.3352573317663384 0.5777746445210099 -0.6343577854722298 0.0
C C 0.4026104920900166 0.5534250328917948 -0.5014737240096552 0.0
H H 0.44494049209001657 0.5744450328917947 -0.4561337240096552 0.0
O O 0.15242294637120227 0.5218675318617947 -0.8594583654760647 0.0
H H 0.17727294637120233 0.4628575318617945 -0.8754183654760647 0.0
C C 0.2204575230839609 0.5719908016691752 -0.8310765319363631 0.0
H H 0.24421752308396089 0.6142798016691752 -0.8692165319363631 0.0
C C 0.14404882949774492 0.5998986798927574 -0.8470828885248654 0.0
H H 0.06696526301045534 0.11104920734741532 0.06392312623787562 0.0
H H 0.06696526301045534 0.11104920734741532 0.06392312623787562 0.0
H H 0.15952882949774494 0.6952806798927575 -0.8184728885248653 0.0
H H 0.4507478548299596 0.15085958889551512 -0.1826646114038296 0.0
Zn Zn 0.6726529223802926 0.21323128183357093 -0.23276750482411582 0.0
O O 0.5352584144883721 0.41595745018280766 -0.16472968159745865 0.0
O O 0.5513759535977003 0.19730890233900295 -0.26379697166261695 0.0
O O 0.6634841406839483 0.2671727277776434 -0.11998205367786187 0.0
N N 0.7520937307368759 0.42851839439823347 0.1986045084883704 0.0
N N 0.6881384472705898 0.6100355056988274 0.20479051889038494 0.0
C C 0.6777046905930735 0.41354472943061066 0.018106976847319583 0.0
H H 0.7101746905930735 0.3466247294306107 0.008566976847319592 0.0
C C 0.6161082716631462 0.34643748650840106 -0.09922189611112221 0.0
C C 0.6367896460761129 0.439207682575922 -0.0013782234487413583 0.0
C C 0.5855513715070407 0.6509123150611846 0.08256146750150249 0.0
H H 0.5541113715070407 0.7215323150611846 0.09142146750150247 0.0
C C 0.7332771226633268 0.488695408763821 0.1380277642208005 0.0
C C 0.7545195392386779 0.53634237272461 0.2597181170185993 0.0
C C 0.6574376227729438 0.595286486442297 0.13097677153473866 0.0
C C 0.5765387366430014 0.5663362665796255 -0.018438554395294425 0.0
H H 0.5342087366430014 0.5873562665796256 -0.06377855439529441 0.0
O O 0.8395216819792083 0.5155183234430818 0.39672443394405404 0.0
H H 0.8146716819792083 0.45650832344308173 0.412684433944054 0.0
C C 0.7753008724969318 0.6109254500012291 0.364411841797028 0.0
H H 0.7515408724969317 0.6532144500012291 0.40255184179702796 0.0
C C 0.8849499662013707 0.529553760655808 0.3234892552010197 0.0
H H 0.06696526301045534 0.11104920734741532 0.06392312623787562 0.0
H H 0.06696526301045534 0.11104920734741532 0.06392312623787562 0.0
H H 0.8694699662013708 0.624935760655808 0.29487925520101976 0.0
H H 0.5523459535977003 0.165628902339003 -0.297236971662617 0.0
