_cell_length_a 20.4364
_cell_length_b 9.005017
_cell_length_c 16.6723
_cell_angle_alpha 90.0
_cell_angle_beta 110.2303
_cell_angle_gamma 90.0
_symmetry_space_group_name_H-M         'P 1'
_symmetry_Int_Tables_number            1
loop_
_symmetry_equiv_pos_as_xyz
   'x, y, z'
                         
loop_
_atom_site_label
_atom_site_type_symbol
_atom_site_fract_x 
_atom_site_fract_y
_atom_site_fract_z
_atom_site_charge
Zn Zn 0.15721862140575316 0.3216384626282959 0.27522173939245953 0.0
Zn Zn 0.0020053021005584214 0.2031015041256366 0.23776950678359302 0.0
O O 0.05899629708376096 0.06409721835672963 0.3420515370016742 0.0
O O 0.07333946922279978 0.3396430253007354 0.22872067306413074 0.0
O O 0.15334045415757394 0.23057860180985895 0.38035449990412223 0.0
N N 0.27255214761334196 0.05733479934486489 0.6965988649911212 0.0
N N 0.20203253580436398 -0.10553446023237147 0.7171559326234792 0.0
C C 0.2043544999347183 0.11084209240143024 0.5357728322228227 0.0
H H 0.23682449993471832 0.1777620924014302 0.5262328322228228 0.0
C C 0.12821023291045558 0.17684752270846146 0.38698077865609437 0.0
C C 0.12301199517966721 0.01095608214547095 0.47739300225232895 0.0
C C 0.1065079252032042 -0.09638274229885195 0.585326786755 0.0
H H 0.07506792520320418 -0.16700274229885195 0.5941867867549999 0.0
C C 0.20485908037896378 -0.0018886602646487685 0.6200097977523643 0.0
C C 0.2528241109941175 -0.06806227360444969 0.7349969023033605 0.0
C C 0.17043726053541433 -0.09732908590655996 0.6405317531880614 0.0
C C 0.10327571872389929 -0.05030821994925233 0.49740413286568874 0.0
H H 0.06094571872389929 -0.07132821994925233 0.45206413286568875 0.0
O O 0.3348437186255595 0.05837977002377629 0.8666655050600256 0.0
H H 0.30999371862555947 0.11738977002377629 0.8826255050600257 0.0
C C 0.2921721937508923 -0.04194895269376447 0.8252118855221656 0.0
H H 0.2684121937508923 -0.08423795269376445 0.8633518855221656 0.0
C C 0.36241830713451195 -0.17947702228827467 0.8320897495015094 0.0
H H 0.06696526301045534 0.11104920734741532 0.06392312623787562 0.0
H H 0.06696526301045534 0.11104920734741532 0.06392312623787562 0.0
H H 0.346938307134512 -0.27485902228827463 0.8034797495015095 0.0
H H 0.07430946922279978 0.3713230253007354 0.19528067306413077 0.0
Zn Zn -0.17376277778032165 0.271746558951288 0.23088985329573916 0.0
O O -0.06006750395471923 0.0929976200228427 0.17059203260554892 0.0
O O -0.0742895669925107 0.357541709163118 0.2789521357589553 0.0
O O -0.13270793043377158 0.18061440277540214 0.1326981684021396 0.0
N N -0.2707000344163164 0.06580898031014228 -0.2058310967058567 0.0
N N -0.1994204397481117 -0.21612098693153367 -0.2283115390266091 0.0
C C -0.2019037020655932 0.07219598685161713 -0.06877273290541992 0.0
H H -0.23437370206559316 0.13911598685161713 -0.05923273290541992 0.0
C C -0.1313767320064973 0.10018433103267611 0.0986321108231123 0.0
C C -0.1305980623740855 0.07918608455428147 0.014937697300140615 0.0
C C -0.12306721857873863 -0.13063241909775358 -0.07857412448545545 0.0
H H -0.09162721857873864 -0.20125241909775357 -0.08743412448545543 0.0
C C -0.20500167555866874 0.011696132960553444 -0.11158355448711223 0.0
C C -0.24340337843194657 -0.02983254448651948 -0.2592426490990233 0.0
C C -0.17119430522412893 -0.08981438271988593 -0.13582531244203422 0.0
C C -0.06973888058404466 -0.05668436043933653 0.006126381567638833 0.0
H H -0.027408880584044674 -0.07770436043933653 0.05146638156763882 0.0
O O -0.328264624942718 0.010624173595576611 -0.3777903764879419 0.0
H H -0.303414624942718 0.06963417359557661 -0.39375037648794187 0.0
C C -0.30730596686724865 -0.07675806408108966 -0.33481371738577953 0.0
H H -0.28354596686724864 -0.11904706408108966 -0.3729537173857795 0.0
C C -0.39060595557179084 -0.20541925546479858 -0.33464286940344784 0.0
H H 0.06696526301045534 0.11104920734741532 0.06392312623787562 0.0
H H 0.06696526301045534 0.11104920734741532 0.06392312623787562 0.0
H H -0.37512595557179085 -0.30080125546479863 -0.306032869403448 0.0
H H -0.07525956699251068 0.389221709163118 0.3123921357589553 0.0
Zn Zn 0.6519730159754992 0.8043792467671588 0.26983228240917273 0.0
Zn Zn 0.48592690423403795 0.7463203442289021 0.2359063165446326 0.0
O O 0.5622864666781129 0.6049102519999471 0.338915761330398 0.0
O O 0.5911629996762052 0.8429778167823714 0.2228476275784624 0.0
O O 0.6620263455679065 0.6878635343869945 0.36985397627346445 0.0
N N 0.7666819698598862 0.5585689583494339 0.6971290303997018 0.0
N N 0.6897895214297776 0.3995295022189899 0.7163332367632297 0.0
C C 0.7039820522343014 0.5827845962415025 0.5523878546047234 0.0
H H 0.7364520522343014 0.6497045962415026 0.5428478546047235 0.0
C C 0.6095831982778228 0.6648517512608213 0.3881507014464437 0.0
C C 0.6182518868075724 0.5116647432104101 0.47875322262253905 0.0
C C 0.5909639493043964 0.39392479248888634 0.5491563278479955 0.0
H H 0.5595239493043965 0.32330479248888633 0.5580163278479955 0.0
C C 0.7187085273420514 0.516509326986358 0.6161761522629465 0.0
C C 0.7620078317443698 0.45781167717006993 0.7574845433332884 0.0
C C 0.6675061486558533 0.44643378150525775 0.6391530441161787 0.0
C C 0.5756660398147427 0.48326164548453815 0.48360722915322474 0.0
H H 0.5333360398147426 0.4622416454845381 0.43826722915322475 0.0
O O 0.8375004620294313 0.5186150531253598 0.8545164602825456 0.0
H H 0.8126504620294313 0.5776250531253599 0.8704764602825457 0.0
C C 0.8011682055488683 0.39846356629082597 0.8274960688186164 0.0
H H 0.7774082055488682 0.35617456629082594 0.8656360688186163 0.0
C C 0.8356461425495915 0.3479258397951669 0.8569477160399845 0.0
H H 0.06696526301045534 0.11104920734741532 0.06392312623787562 0.0
H H 0.06696526301045534 0.11104920734741532 0.06392312623787562 0.0
H H 0.8201661425495916 0.25254383979516687 0.8283377160399845 0.0
H H 0.5921329996762053 0.8746578167823715 0.18940762757846244 0.0
Zn Zn 0.3405264277686923 0.8020597969610834 0.2359973566283325 0.0
O O 0.42399685447212965 0.6624234802058545 0.16389976125793704 0.0
O O 0.4305863288810112 0.8642699855652238 0.2919001600943618 0.0
O O 0.3199689535956031 0.7748551700741283 0.11639955714969843 0.0
N N 0.2159647794142347 0.5434827899176594 -0.18378424634514234 0.0
N N 0.3102909571919685 0.4218398520462531 -0.21435798477835544 0.0
C C 0.30681776433684493 0.5973105963224146 -0.049737369316187094 0.0
H H 0.27434776433684493 0.6642305963224147 -0.0401973693161871 0.0
C C 0.39355257375031816 0.6264554907393808 0.09568440879846712 0.0
C C 0.3639229042033195 0.5670836889961318 0.01516800384037587 0.0
C C 0.36511951215781097 0.3942027106983951 -0.09347290318101314 0.0
H H 0.3965595121578108 0.32358271069839506 -0.10233290318101314 0.0
C C 0.29852378977903327 0.519608372561023 -0.10888316176910857 0.0
C C 0.23816769420809528 0.4063833858406519 -0.28159882927817925 0.0
C C 0.32881617892288467 0.4628583534392928 -0.1324489431875017 0.0
C C 0.40944707601302843 0.46029197764030033 0.02561426892588763 0.0
H H 0.45177707601302847 0.4392719776403003 0.07095426892588763 0.0
O O 0.14501998922230253 0.5969048234513558 -0.3706556671424813 0.0
H H 0.16986998922230256 0.6559148234513558 -0.3866156671424813 0.0
C C 0.1954999871563597 0.3925561738475646 -0.353307159830493 0.0
H H 0.21925998715635966 0.35026717384756456 -0.39144715983049294 0.0
C C 0.10135867242340835 0.24654395549804728 -0.35356010669465426 0.0
H H 0.06696526301045534 0.11104920734741532 0.06392312623787562 0.0
H H 0.06696526301045534 0.11104920734741532 0.06392312623787562 0.0
H H 0.1168386724234084 0.15116195549804728 -0.3249501066946544 0.0
H H 0.4296163288810113 0.895949985565224 0.32534016009436184 0.0
Zn Zn -0.16500748700289955 -0.3098048522312814 -0.2696096055940419 0.0
Zn Zn 0.001102829193485838 -0.3065186215797484 -0.24645649995915653 0.0
O O -0.0354948219761646 -0.15413214380973486 -0.33358227550575803 0.0
O O -0.05535096746482563 -0.35491074249273624 -0.19997120211852515 0.0
O O -0.1678936149583225 -0.16970677348524596 -0.37295968085757125 0.0
N N -0.2570632777822741 -0.059932583529516255 -0.6930164175748877 0.0
N N -0.18915647545445172 0.07661502929009378 -0.7105893624027317 0.0
C C -0.185362331658012 -0.11331711239465384 -0.5338552733077804 0.0
H H -0.21783233165801202 -0.18023711239465381 -0.5243152733077805 0.0
C C -0.11369150296583638 -0.13492899881436093 -0.41890294013528007 0.0
C C -0.11749720169405342 -0.048606301663975816 -0.47760631477626686 0.0
C C -0.09540077033317794 0.0927504658366022 -0.5669007556250224 0.0
H H -0.06396077033317793 0.1633704658366022 -0.5757607556250223 0.0
C C -0.2085118259422217 -0.005049634365144356 -0.6197625535239035 0.0
C C -0.254323492602693 0.06855820924886383 -0.7557177335628367 0.0
C C -0.15441240080109056 0.09070120138062428 -0.6313786795271157 0.0
C C -0.08624481087898854 0.06543826856836055 -0.4820081419902761 0.0
H H -0.04391481087898854 0.08645826856836053 -0.43666814199027615 0.0
O O -0.3092269465454211 -0.08646927820687447 -0.8579687152321601 0.0
H H -0.2843769465454211 -0.14547927820687445 -0.8739287152321602 0.0
C C -0.3410198612408396 0.2280191514682384 -0.8495354221269593 0.0
H H -0.3172598612408396 0.27030815146823833 -0.8876754221269593 0.0
C C -0.35240370719108477 0.11378606622924393 -0.8537087494615155 0.0
H H 0.06696526301045534 0.11104920734741532 0.06392312623787562 0.0
H H 0.06696526301045534 0.11104920734741532 0.06392312623787562 0.0
H H -0.3369237071910848 0.20916806622924394 -0.8250987494615155 0.0
H H -0.056320967464825636 -0.3865907424927363 -0.16653120211852515 0.0
Zn Zn 0.15701738924354278 -0.26901578190714326 -0.23320010548448775 0.0
O O 0.08375807052562778 -0.11091612571295738 -0.16869812066680825 0.0
O O 0.07655098495568118 -0.35004530514170584 -0.24889610931356057 0.0
O O 0.18139425690912792 -0.21981174775466417 -0.10382532784911352 0.0
N N 0.2883729752483841 -0.11050217315033685 0.20365475988506584 0.0
N N 0.19947781043337864 0.09630154853975548 0.19539084974220217 0.0
C C 0.22551710745245576 -0.15084461228488674 0.04297989572069781 0.0
H H 0.25798710745245573 -0.21776461228488675 0.03343989572069782 0.0
C C 0.0828960006162293 -0.10544537188191948 -0.09627720330259695 0.0
C C 0.11705125426953329 -0.06799634999169954 -0.027683204803087915 0.0
C C 0.10892854929357391 0.10131147375639483 0.05147794675705185 0.0
H H 0.0774885492935739 0.17193147375639484 0.060337946757051834 0.0
C C 0.20676896875571554 -0.02290410306036013 0.12688583499464862 0.0
C C 0.2668294722986336 0.007236429388868742 0.25249381242428404 0.0
C C 0.16805907942912773 0.06340633760596306 0.1420127897562223 0.0
C C 0.09045908788492094 0.0442675161193396 -0.018230202918052996 0.0
H H 0.04812908788492094 0.06528751611933961 -0.06357020291805299 0.0
O O 0.386073902096231 -0.006504755053078577 0.3730893143790511 0.0
H H 0.3612239020962309 -0.06551475505307858 0.38904931437905105 0.0
C C 0.3205213830065758 0.06531926634781482 0.34471455402586143 0.0
H H 0.29676138300657573 0.10760826634781481 0.3828545540258614 0.0
C C 0.3640143740589722 0.15341457416761833 0.32766148907041587 0.0
H H 0.06696526301045534 0.11104920734741532 0.06392312623787562 0.0
H H 0.06696526301045534 0.11104920734741532 0.06392312623787562 0.0
H H 0.34853437405897214 0.24879657416761833 0.2990514890704159 0.0
H H 0.07752098495568117 -0.38172530514170583 -0.28233610931356057 0.0
Zn Zn 0.3466370692697448 0.2780878535588648 -0.2739986214228565 0.0
Zn Zn 0.4890005704887798 0.2172324343684113 -0.2521129298391245 0.0
O O 0.4572380408005745 0.3948286127557405 -0.340439393886754 0.0
O O 0.4397584958111137 0.0644105435046571 -0.24640553533616663 0.0
O O 0.33334540908440263 0.33014007730864287 -0.39639949447567296 0.0
N N 0.243266842564638 0.4068705249741622 -0.6983292663796756 0.0
N N 0.30408190344641645 0.6673303885699176 -0.7155211902153354 0.0
C C 0.29045637989103634 0.4371543144776046 -0.550649373463881 0.0
H H 0.25798637989103623 0.3702343144776046 -0.541109373463881 0.0
C C 0.3896910928173719 0.3917412703487552 -0.4130887044962308 0.0
C C 0.36994482194307005 0.47664902733305275 -0.49587576288795576 0.0
C C 0.39625587560703435 0.6135864218703707 -0.5336475789723522 0.0
H H 0.4276958756070342 0.6842064218703707 -0.542507578972352 0.0
C C 0.2978725880424539 0.4889931311531693 -0.6162803901161644 0.0
C C 0.23276395395132116 0.5580581718625758 -0.7618617393874437 0.0
C C 0.33551592558232596 0.5582190265057598 -0.6316273244040448 0.0
C C 0.4323284305774938 0.5204339954009455 -0.4756759787818938 0.0
H H 0.47465843057749374 0.5414539954009454 -0.43033597878189384 0.0
O O 0.1930715522487497 0.3519648326604599 -0.8498312827130434 0.0
H H 0.21792155224874968 0.2929548326604598 -0.8657912827130435 0.0
C C 0.2156315198055454 0.5716763705111213 -0.8218134370091983 0.0
H H 0.23939151980554538 0.6139653705111213 -0.8599534370091982 0.0
C C 0.12363546266849758 0.6192703523212332 -0.8383348974253193 0.0
H H 0.06696526301045534 0.11104920734741532 0.06392312623787562 0.0
H H 0.06696526301045534 0.11104920734741532 0.06392312623787562 0.0
H H 0.1391154626684976 0.7146523523212334 -0.8097248974253194 0.0
H H 0.4387884958111138 0.03273054350465709 -0.21296553533616666 0.0
Zn Zn 0.6603327412057889 0.15582338497332648 -0.24123914634625285 0.0
O O 0.5580912892557615 0.37423164785109153 -0.15085447452983816 0.0
O O 0.5603962201737838 0.14239724850244947 -0.2759853488497611 0.0
O O 0.650477327738241 0.283200810184288 -0.11238225681875447 0.0
N N 0.75442603337247 0.4351987184872698 0.20220892579255892 0.0
N N 0.6844337702541472 0.6107170847474885 0.2247880784684696 0.0
C C 0.6956911692485239 0.4524250389881855 0.03402553515394982 0.0
H H 0.7281611692485238 0.38550503898818544 0.02448553515394983 0.0
C C 0.6353372747782121 0.37364221816644144 -0.10753345770672003 0.0
C C 0.6346696433860259 0.4753257499822524 -0.031244994055327466 0.0
C C 0.5714754294007368 0.680766837242493 0.04710182199520931 0.0
H H 0.5400354294007368 0.751386837242493 0.05596182199520929 0.0
C C 0.7051164883530506 0.4613585197672249 0.12220683342676979 0.0
C C 0.7630385284829289 0.5014383397382688 0.2372262151306812 0.0
C C 0.6555749749692269 0.5953362054140086 0.11895713863103026 0.0
C C 0.5673435709815673 0.6034738974801417 -0.006417830258430961 0.0
H H 0.5250135709815673 0.6244938974801417 -0.051757830258430955 0.0
O O 0.8497960286834046 0.41922383902777655 0.35587711921917364 0.0
H H 0.8249460286834046 0.3602138390277765 0.3718371192191736 0.0
C C 0.7929634315234574 0.6141948581260799 0.3378374606135297 0.0
H H 0.7692034315234573 0.6564838581260798 0.37597746061352966 0.0
C C 0.8513111029529973 0.7590898040261845 0.33602330214734477 0.0
H H 0.06696526301045534 0.11104920734741532 0.06392312623787562 0.0
H H 0.06696526301045534 0.11104920734741532 0.06392312623787562 0.0
H H 0.8358311029529975 0.8544718040261845 0.30741330214734486 0.0
H H 0.5613662201737838 0.11071724850244945 -0.30942534884976114 0.0
