_cell_length_a 13.649
_cell_length_b 13.649
_cell_length_c 8.092
_cell_angle_alpha 90.0
_cell_angle_beta 90.0
_cell_angle_gamma 90.0
_symmetry_space_group_name_H-M         'P 1'
_symmetry_Int_Tables_number            1
loop_
_symmetry_equiv_pos_as_xyz
   'x, y, z'
                         
loop_
_atom_site_label
_atom_site_type_symbol
_atom_site_fract_x 
_atom_site_fract_y
_atom_site_fract_z
_atom_site_charge
C7 C7 0.031486265465911 0.2807167012929259 0.3808245104680591 0.0
C9 C9 0.004201555164970167 0.21583384381033274 0.3452439008915802 0.0
C7 C7 0.5199470771444513 0.7446568700489262 0.8129263775755871 0.0
C9 C9 0.4779402390881649 0.7198947140666614 0.880830257323591 0.0
C7 C7 -0.03209086710209618 0.7019643011401749 0.39966543945489547 0.0
C9 C9 -0.005802353871944485 0.7993911301422182 0.351001887032621 0.0
C7 C7 0.5426647159320304 0.20367898685495808 0.7956320110576345 0.0
C9 C9 0.4313585332162313 0.31516459531988394 0.8814124591853171 0.0
C7 C7 0.7086629094321552 8.093059382940645e-05 0.3870205071016991 0.0
C9 C9 0.7748081591324747 -0.0015538812009590105 0.3760667582372071 0.0
C7 C7 0.21644025554020113 0.47266163143630197 0.8103101535592021 0.0
C9 C9 0.2263475627704565 0.5105083763905115 0.8751113676317706 0.0
C7 C7 0.3271356897685723 -0.0015718965244933983 0.38097177774513014 0.0
C9 C9 0.24400742402150621 -0.001236745432689344 0.37778356239848193 0.0
C7 C7 0.7869177881380202 0.5058148830711332 0.8930134713305703 0.0
C9 C9 0.7005780694888527 0.4982181548681949 0.8701789148196025 0.0
C7 C7 -0.034843300068076295 0.33416607303154633 0.6724617984047491 0.0
C9 C9 -0.10253813152970812 0.18113213269431822 0.6128600873355999 0.0
C7 C7 0.45713932163991866 0.799229326685037 0.20208635600759903 0.0
C9 C9 0.4744869576486339 0.694173218315379 0.15446238407410975 0.0
C7 C7 0.009938726325117634 0.6691075439307432 0.7290968900804023 0.0
C9 C9 -0.02416867682264028 0.8485444628632848 0.6383313114638409 0.0
C7 C7 0.5105793877603243 0.18691998069464869 0.19972517981741314 0.0
C9 C9 0.34748336467208196 0.2710498797908793 0.1339150120931189 0.0
C7 C7 0.4549988712419914 0.008276702554739316 0.6154894496792888 0.0
C9 C9 0.15935500575988892 -0.015531028762027626 0.679507951567973 0.0
C7 C7 0.8289108089187394 0.5332275066650077 0.21637482044249115 0.0
C9 C9 0.719386076417418 0.48321557557038347 0.08668073550259063 0.0
C7 C7 0.6593427030392646 0.016953936876522923 0.6029511892801372 0.0
C9 C9 0.8141110489958165 0.03479679318193744 0.6387221774904174 0.0
C7 C7 0.24851893650610324 0.5099416117451409 0.19797767438823505 0.0
C9 C9 0.20252747392435788 0.5000563746363847 0.18792451140138214 0.0
C5 C5 -0.013105664479637213 0.4257026590090321 0.5141921688347407 0.0
C8 C8 -0.04354245257915805 0.36663952856996795 0.4996968849881188 0.0
C5 C5 0.515668369338816 0.9615791883314264 -0.0637909663840987 0.0
C5 C5 0.5168049923723689 0.822810107720387 -0.07377151507626667 0.0
C5 C5 0.014021190335024974 0.5781986337010325 0.5107120237718578 0.0
C8 C8 0.024501225168595035 0.6605210706068045 0.44533408967196325 0.0
C5 C5 0.4600923404582651 0.02518341673413504 -0.009314532636546973 0.0
C5 C5 0.49486749166476507 0.11799192658948354 0.06469594188499272 0.0
C5 C5 0.5050271205332664 -0.01189846739971902 0.4944906428193536 0.0
C8 C8 0.6461987443653401 -0.01031186166578938 0.432915760840599 0.0
C5 C5 0.0645656849896943 0.5118311588826456 -0.0257808035885744 0.0
C8 C8 0.2025660749439206 0.5337212820807407 0.07924866927371871 0.0
C5 C5 0.44173689579972225 -0.00025035140714288267 0.4833421781232156 0.0
C8 C8 0.26300413965989206 -0.022175409015456365 0.48794982565736106 0.0
C5 C5 0.9864807725950785 0.5103332898410184 -0.03543351822668259 0.0
C8 C8 0.8876731219090228 0.4929448711164827 -0.00609494913045072 0.0
H H 0.03148626546591099 0.31848670129292594 0.26234451046805907 0.0
H H 0.004201555164970166 0.17276384381033275 0.23201390089158022 0.0
H H 0.5199470771444513 0.7824268700489263 0.694446377575587 0.0
H H 0.4779402390881649 0.6768247140666613 0.7676002573235908 0.0
H H -0.03209086710209618 0.6641943011401749 0.2811854394548954 0.0
H H -0.005802353871944484 0.8424611301422184 0.23777188703262098 0.0
H H 0.5426647159320304 0.16590898685495808 0.6771520110576345 0.0
H H 0.4313585332162313 0.3582345953198839 0.7681824591853169 0.0
H H 0.6708929094321551 8.093059382940648e-05 0.268540507101699 0.0
H H 0.8178781591324747 -0.0015538812009590105 0.2628367582372071 0.0
H H 0.17867025554020113 0.472661631436302 0.6918301535592021 0.0
H H 0.2694175627704565 0.5105083763905115 0.7618813676317705 0.0
H H 0.3649056897685723 -0.0015718965244933983 0.26249177774513016 0.0
H H 0.20093742402150624 -0.001236745432689344 0.26455356239848193 0.0
H H 0.8246877881380202 0.5058148830711332 0.7745334713305703 0.0
H H 0.6575080694888527 0.49821815486819493 0.7569489148196024 0.0
H H -0.03484330006807629 0.3719360730315463 0.7909417984047491 0.0
H H -0.10253813152970812 0.13806213269431822 0.7260900873356 0.0
H H 0.45713932163991866 0.8369993266850371 0.320566356007599 0.0
H H 0.4744869576486339 0.651103218315379 0.2676923840741098 0.0
H H 0.009938726325117634 0.6313375439307433 0.8475768900804025 0.0
H H -0.024168676822640282 0.8916144628632848 0.751561311463841 0.0
H H 0.5105793877603243 0.14914998069464871 0.3182051798174131 0.0
H H 0.34748336467208196 0.3141198797908793 0.24714501209311893 0.0
H H 0.4927688712419914 0.008276702554739317 0.7339694496792888 0.0
H H 0.11628500575988893 -0.015531028762027626 0.792737951567973 0.0
H H 0.8666808089187394 0.5332275066650077 0.3348548204424911 0.0
H H 0.6763160764174179 0.48321557557038347 0.19991073550259064 0.0
H H 0.6215727030392645 0.01695393687652292 0.7214311892801374 0.0
H H 0.8571810489958167 0.03479679318193744 0.7519521774904174 0.0
H H 0.21074893650610327 0.5099416117451409 0.316457674388235 0.0
H H 0.24559747392435785 0.5000563746363847 0.30115451140138216 0.0
Cu Cu 0.019893850580744266 0.01158474837478081 0.5246779182778014 0.0
Cu Cu 0.508473214177763 0.5060857578644044 0.003152814549778699 0.0
Si Si 0.025713495795674442 0.01677584309556073 -0.025982834448537148 0.0
Si Si 0.4837155088749383 0.5203920759254844 0.44108964980297477 0.0
N N 0.022027274220180314 0.1623712090952052 0.5308942129588823 0.0
N N 0.4789006913447451 0.6353734632058642 0.003500868720506543 0.0
N N -0.03068544798569504 0.83764260166251 0.5224619254929314 0.0
N N 0.4933450757884885 0.34392686274134654 -0.016164528776682202 0.0
N N 0.889619828427385 0.011784606182895565 0.4559211404226873 0.0
N N 0.3847117589443683 0.4658159512556552 -0.01164481400883877 0.0
N N 0.14244858405779198 -0.0020221503644979395 0.5445442901342051 0.0
N N 0.6410102377583562 0.48071434800480906 -0.014625241978934547 0.0
F3 F3 -0.029763743621672195 -0.02007404694208896 0.8364246779176993 0.0
F3 F3 0.5133706365843136 0.47124104713996684 0.2508492010800416 0.0
F3 F3 0.0029121281132443804 -0.01455394750538662 0.1923491251718016 0.0
F3 F3 0.521475089645086 0.5338505276519105 0.720894200451176 0.0
F F 0.5726326748740476 0.5717346677510606 0.49686021316900325 0.0
F F 0.540359988296027 0.4235853408441764 0.5101004028441113 0.0
F F 0.416602903187908 0.5538609444890783 0.5235338994640177 0.0
F F 0.3930888900650715 0.451477754122623 0.5016205010631831 0.0
F F 0.031278393810833804 0.1333351845164223 0.010268746537256783 0.0
F F 0.9322448446997047 0.8715437684221522 -0.005448100479499121 0.0
F F 0.8823933025960226 0.061389171077256534 0.014848914570700965 0.0
F F 0.10610614002453606 0.8654858085034108 0.045430604462689636 0.0
