_cell_length_a 13.649
_cell_length_b 13.649
_cell_length_c 8.092
_cell_angle_alpha 90.0
_cell_angle_beta 90.0
_cell_angle_gamma 90.0
_symmetry_space_group_name_H-M         'P 1'
_symmetry_Int_Tables_number            1
loop_
_symmetry_equiv_pos_as_xyz
   'x, y, z'
                         
loop_
_atom_site_label
_atom_site_type_symbol
_atom_site_fract_x 
_atom_site_fract_y
_atom_site_fract_z
_atom_site_charge
C7 C7 -0.0023700699208832267 0.2818919869076706 0.3895454419207842 0.0
C9 C9 -0.0005260666844507282 0.1872002169350244 0.3951733156080037 0.0
C7 C7 0.5130262438231361 0.7788272106585903 0.8593443475242676 0.0
C9 C9 0.5176450922578837 0.6800915361549199 0.8552282420515923 0.0
C7 C7 0.016859237207737573 0.7056839841360663 0.2960977611303543 0.0
C9 C9 0.00954366467312222 0.7986304993751321 0.3568125232573747 0.0
C7 C7 0.6491580912987471 0.17679580303342227 0.7867750310071483 0.0
C9 C9 0.5010575037871392 0.28818826548242543 0.8307785819069015 0.0
C7 C7 0.7621366241764542 -0.007663685705043635 0.3230213716341468 0.0
C9 C9 0.8345451893647265 0.0022884864922783545 0.33082749339947964 0.0
C7 C7 0.23018615644745613 0.483745221846645 0.8091886312341333 0.0
C9 C9 0.33525355732674317 0.46941387743603724 0.910636270954609 0.0
C7 C7 0.29100788947874096 0.03630958728812702 0.3223273777506155 0.0
C9 C9 0.23421225465793935 0.0053226864180013584 0.38497827910394855 0.0
C7 C7 0.8708758534438115 0.5094760097066435 0.8854785163289709 0.0
C9 C9 0.6859574504365296 0.48417269949116354 0.8219368387856435 0.0
C7 C7 -0.010828505712661179 0.3112960891689967 0.6122401425112234 0.0
C9 C9 -0.023776918335686546 0.25411003122391496 0.6634761279503173 0.0
C7 C7 0.465566392933887 0.7680216539697543 0.22349292470298734 0.0
C9 C9 0.4582341939419587 0.6788862704636187 0.08539499410097232 0.0
C7 C7 -0.02055734338591736 0.6985279176791827 0.650259177379601 0.0
C9 C9 0.036675474687191345 0.8139743349453005 0.6655769286308906 0.0
C7 C7 0.43978176165749755 0.21358014776207768 0.18903838083037455 0.0
C9 C9 0.49105359115776104 0.30102636853866216 0.14837213572423352 0.0
C7 C7 0.3489152991848684 0.015600050890776904 0.6746406506548962 0.0
C9 C9 0.18384752176263625 0.002662311069725588 0.6637594685489048 0.0
C7 C7 0.8551288026860685 0.4614917806262643 0.19311979579007918 0.0
C9 C9 0.652866323981165 0.5522917811280623 0.12117031182010109 0.0
C7 C7 0.6685161211843416 0.03980345455967486 0.6826870077536354 0.0
C9 C9 0.8214636335812702 0.0164478194293994 0.6671187525219069 0.0
C7 C7 0.2825151743183098 0.4822266851812753 0.1552545323060581 0.0
C9 C9 0.3833394078557708 0.46746887541049326 0.2121677700321063 0.0
C5 C5 0.07200972104083904 0.46590796757196995 0.47771768066463716 0.0
C8 C8 -0.04822702961910115 0.3681604946786433 0.5024835037321965 0.0
C5 C5 0.4861237909975463 0.9271905871189929 -0.0009526408704662082 0.0
C5 C5 0.45765327686564283 0.8494137076649128 0.0228689322627401 0.0
C5 C5 0.0055609734670889 0.5193702035210378 0.3981422769929299 0.0
C8 C8 0.014509654217923251 0.651540758895588 0.489255513737524 0.0
C5 C5 0.4885675578384236 0.049640791832691065 -0.015067368979027166 0.0
C5 C5 0.45268189759470506 0.19295770454180047 -0.017863858599269238 0.0
C5 C5 0.5858887453335686 0.013991222356125262 0.48129753517510915 0.0
C8 C8 0.6333552422843199 -0.030148785210248708 0.5468233613006671 0.0
C5 C5 -0.0017948005009284617 0.5535388744531247 -0.05418349354894321 0.0
C8 C8 0.12878741205484465 0.5253179688342863 0.025040963530742828 0.0
C5 C5 0.4760951053774068 -0.022261836565453972 0.5658381491916291 0.0
C8 C8 0.3841047011418079 0.019613849350346255 0.4776657212278438 0.0
C5 C5 0.9656786187650402 0.49518952223506124 -0.0011963062240848722 0.0
C8 C8 0.8687744877178298 0.5123747929997317 -0.042074340670759984 0.0
H H -0.0023700699208832267 0.31966198690767056 0.2710654419207842 0.0
H H -0.0005260666844507281 0.14413021693502442 0.28194331560800373 0.0
H H 0.5130262438231361 0.8165972106585904 0.7408643475242676 0.0
H H 0.5176450922578837 0.6370215361549199 0.7419982420515923 0.0
H H 0.01685923720773757 0.6679139841360662 0.1776177611303543 0.0
H H 0.00954366467312222 0.8417004993751321 0.24358252325737473 0.0
H H 0.6491580912987471 0.1390258030334223 0.6682950310071483 0.0
H H 0.5010575037871392 0.3312582654824254 0.7175485819069013 0.0
H H 0.7243666241764543 -0.007663685705043636 0.20454137163414682 0.0
H H 0.8776151893647266 0.0022884864922783545 0.21759749339947965 0.0
H H 0.19241615644745613 0.48374522184664503 0.6907086312341332 0.0
H H 0.37832355732674317 0.46941387743603724 0.7974062709546089 0.0
H H 0.328777889478741 0.03630958728812702 0.20384737775061543 0.0
H H 0.19114225465793935 0.005322686418001359 0.27174827910394855 0.0
H H 0.9086458534438114 0.5094760097066435 0.7669985163289709 0.0
H H 0.6428874504365294 0.4841726994911636 0.7087068387856434 0.0
H H -0.010828505712661177 0.3490660891689967 0.7307201425112235 0.0
H H -0.02377691833568655 0.21104003122391493 0.7767061279503173 0.0
H H 0.465566392933887 0.8057916539697544 0.3419729247029873 0.0
H H 0.4582341939419587 0.6358162704636187 0.19862499410097234 0.0
H H -0.02055734338591736 0.6607579176791827 0.7687391773796012 0.0
H H 0.03667547468719134 0.8570443349453006 0.7788069286308906 0.0
H H 0.43978176165749755 0.17581014776207768 0.3075183808303745 0.0
H H 0.49105359115776104 0.34409636853866216 0.2616021357242336 0.0
H H 0.3866852991848684 0.015600050890776903 0.7931206506548963 0.0
H H 0.14077752176263625 0.002662311069725588 0.7769894685489048 0.0
H H 0.8928988026860686 0.4614917806262643 0.3115997957900791 0.0
H H 0.6097963239811649 0.5522917811280623 0.2344003118201011 0.0
H H 0.6307461211843415 0.03980345455967486 0.8011670077536355 0.0
H H 0.8645336335812702 0.0164478194293994 0.7803487525219069 0.0
H H 0.24474517431830983 0.4822266851812753 0.2737345323060581 0.0
H H 0.42640940785577075 0.46746887541049326 0.32539777003210635 0.0
Cu Cu -0.024562530731596734 -0.0022126794985021497 0.5225483699874846 0.0
Cu Cu 0.4788093845605053 0.5224585672903888 0.06844048357861394 0.0
Si Si -0.022592104883519017 0.008835891722101918 0.04690441556723297 0.0
Si Si 0.5008911097994552 0.49717991130978434 0.5093121712391858 0.0
N N -0.03868718817459443 0.15972698849251807 0.5099552230465192 0.0
N N 0.5391882933501038 0.665027114268957 0.026786403571393256 0.0
N N 0.034129008288008404 0.8343712942152821 0.5798474302609303 0.0
N N 0.5063904845960173 0.3480462241968419 0.06873122436430976 0.0
N N 0.850826673484994 -0.0006389265211462304 0.5684145373780543 0.0
N N 0.3391815263435415 0.4835378014903275 -0.031546087435391404 0.0
N N 0.12550335796287726 -0.004417893763906899 0.522628757898284 0.0
N N 0.6959520574601494 0.5290825720211713 -0.03497686401076651 0.0
F3 F3 -0.031816453001597314 0.023062860032558558 0.7828725411686246 0.0
F3 F3 0.5005191178388464 0.5518789083010741 0.3053993521917534 0.0
F3 F3 -0.0005520404614705948 0.0408321509073164 0.21219607938671195 0.0
F3 F3 0.5204445711578364 0.49541029568930883 0.7500239839189302 0.0
F F 0.5847997506401629 0.5791431440430554 0.4312117748766933 0.0
F F 0.627748598328601 0.42214410542087016 0.4476782850740646 0.0
F F 0.43560469352586606 0.5924062119458599 0.5009972964174813 0.0
F F 0.4202162856796095 0.4125562890290282 0.40591174690208287 0.0
F F 0.08301718588539869 0.05880297076774749 -0.021096747846198274 0.0
F F 0.8827494569645917 0.8757909910251863 0.02261402097240916 0.0
F F 0.872700015827806 0.08777874901365797 0.046160300825467813 0.0
F F 0.11359995228177275 0.8777568448447766 -0.018436469957663695 0.0
