_cell_length_a 13.649
_cell_length_b 13.649
_cell_length_c 8.092
_cell_angle_alpha 90.0
_cell_angle_beta 90.0
_cell_angle_gamma 90.0
_symmetry_space_group_name_H-M         'P 1'
_symmetry_Int_Tables_number            1
loop_
_symmetry_equiv_pos_as_xyz
   'x, y, z'
                         
loop_
_atom_site_label
_atom_site_type_symbol
_atom_site_fract_x 
_atom_site_fract_y
_atom_site_fract_z
_atom_site_charge
C7 C7 0.04845167876735036 0.2794036214143709 0.3676964654701238 0.0
C9 C9 -0.08748279067913356 0.17736583203308595 0.40965296381722677 0.0
C7 C7 0.4423552889100887 0.7874635092767912 0.8917039013182926 0.0
C9 C9 0.5017763018599161 0.7021601368772217 0.8532072559942301 0.0
C7 C7 0.014514866550795662 0.6935912768595376 0.3361205012234459 0.0
C9 C9 0.00864073306896234 0.8097509787210347 0.3904365229482786 0.0
C7 C7 0.45543062604974416 0.19964824407833442 0.84740210179912 0.0
C9 C9 0.5988722325613101 0.292264104138958 0.8817416025201864 0.0
C7 C7 0.7330380259942537 0.018655312797230875 0.3345010584817723 0.0
C9 C9 0.8132732490656176 -0.013955040222436627 0.3596733581198636 0.0
C7 C7 0.2100556453044776 0.5340541887242485 0.8121893297218294 0.0
C9 C9 0.3012408685815028 0.4801433058340534 0.890244283352643 0.0
C7 C7 0.299884199008946 0.011524780973903512 0.3186748154350621 0.0
C9 C9 0.2358864783594914 -0.002945713920359183 0.3917303333572703 0.0
C7 C7 0.7658319947997121 0.4747254389918246 0.7788269013402496 0.0
C9 C9 0.7987973830244767 0.5075387971159966 0.8641373888920966 0.0
C7 C7 0.005940621078759637 0.2807761371771439 0.5880486539734153 0.0
C9 C9 0.07979464436976502 0.211851307912204 0.6001320858451621 0.0
C7 C7 0.5249979264240197 0.7495659630045793 0.14680062982572573 0.0
C9 C9 0.5036595676568728 0.7053549134115327 0.09846236785446935 0.0
C7 C7 -0.008473481186910024 0.718432740281911 0.6899030280115107 0.0
C9 C9 0.0425500720192632 0.8239559518446982 0.6801978608647473 0.0
C7 C7 0.4582195852148755 0.21006516084513496 0.20848442024413694 0.0
C9 C9 0.49655038079964875 0.32245353668340193 0.039396984911336246 0.0
C7 C7 0.30570676803162067 0.034509770799265926 0.6781910240346862 0.0
C9 C9 0.25308767044574876 -0.05897037187457829 0.6537498412470113 0.0
C7 C7 0.7885515650062365 0.4983007606841064 0.14722011709891947 0.0
C9 C9 0.7056433486665832 0.46567319263803314 0.13730666417721182 0.0
C7 C7 0.7205125642069182 0.025704542059033022 0.7470517731001978 0.0
C9 C9 0.8098418631551145 -0.021564901998681482 0.5824944047317953 0.0
C7 C7 0.30114894276858184 0.48797955505839746 0.1396286120543492 0.0
C9 C9 0.2506836942082146 0.5037958334817694 0.23704626143258095 0.0
C5 C5 0.005703722336209168 0.46017392347175784 0.44733995487059475 0.0
C8 C8 -0.014704564558537876 0.3430083070735099 0.5937948276310945 0.0
C5 C5 0.4920160998212104 0.9480045202140025 -0.049637341436147814 0.0
C5 C5 0.46793287033424996 0.8494505864015921 -0.04124283364340132 0.0
C5 C5 -0.009515913323111162 0.5286356550103052 0.4187056845409923 0.0
C8 C8 -0.013960401188973718 0.6204961964771628 0.4684341503031175 0.0
C5 C5 0.4769286815017991 0.060372241388555715 0.049784144415366535 0.0
C5 C5 0.4708809766905807 0.14880195536087523 -0.046029188498127996 0.0
C5 C5 0.5698644710539298 -0.0329757076022197 0.5133729792481609 0.0
C8 C8 0.6678388561954396 -0.0089462643837565 0.47443775250644443 0.0
C5 C5 0.05333677281864429 0.5202752462291065 0.02093388398567225 0.0
C8 C8 0.12231094031856647 0.531422554641214 -0.0011806957703622025 0.0
C5 C5 0.4243212152238123 -0.03540205644522381 0.4965648006173613 0.0
C8 C8 0.32612071902163065 -0.022205598693521567 0.4561821264577393 0.0
C5 C5 0.9810632188109774 0.4995176880645587 0.03206874282364626 0.0
C8 C8 0.8378775691992231 0.44093518282671246 -0.02655794339562169 0.0
H H 0.04845167876735036 0.31717362141437094 0.24921646547012377 0.0
H H -0.08748279067913359 0.13429583203308598 0.29642296381722677 0.0
H H 0.4423552889100887 0.8252335092767912 0.7732239013182926 0.0
H H 0.5017763018599161 0.6590901368772216 0.73997725599423 0.0
H H 0.014514866550795662 0.6558212768595375 0.21764050122344586 0.0
H H 0.008640733068962342 0.8528209787210349 0.2772065229482785 0.0
H H 0.4554306260497442 0.16187824407833443 0.72892210179912 0.0
H H 0.5988722325613101 0.3353341041389579 0.7685116025201864 0.0
H H 0.6952680259942536 0.01865531279723088 0.21602105848177225 0.0
H H 0.8563432490656178 -0.013955040222436625 0.24644335811986365 0.0
H H 0.1722856453044776 0.5340541887242485 0.6937093297218293 0.0
H H 0.3443108685815028 0.4801433058340534 0.777014283352643 0.0
H H 0.337654199008946 0.011524780973903513 0.2001948154350621 0.0
H H 0.19281647835949142 -0.0029457139203591825 0.27850033335727026 0.0
H H 0.8036019947997121 0.4747254389918247 0.6603469013402495 0.0
H H 0.7557273830244766 0.5075387971159966 0.7509073888920965 0.0
H H 0.005940621078759638 0.3185461371771439 0.7065286539734154 0.0
H H 0.07979464436976502 0.168781307912204 0.7133620858451621 0.0
H H 0.5249979264240197 0.7873359630045794 0.26528062982572564 0.0
H H 0.5036595676568728 0.6622849134115325 0.21169236785446938 0.0
H H -0.008473481186910025 0.6806627402819109 0.8083830280115107 0.0
H H 0.0425500720192632 0.8670259518446983 0.7934278608647474 0.0
H H 0.4582195852148755 0.17229516084513496 0.3269644202441369 0.0
H H 0.49655038079964875 0.36552353668340193 0.15262698491133628 0.0
H H 0.3434767680316206 0.03450977079926593 0.7966710240346864 0.0
H H 0.21001767044574876 -0.0589703718745783 0.7669798412470114 0.0
H H 0.8263215650062364 0.4983007606841064 0.26570011709891944 0.0
H H 0.6625733486665831 0.46567319263803314 0.2505366641772118 0.0
H H 0.6827425642069181 0.025704542059033022 0.8655317731001977 0.0
H H 0.8529118631551147 -0.021564901998681482 0.6957244047317953 0.0
H H 0.26337894276858187 0.48797955505839746 0.2581086120543492 0.0
H H 0.29375369420821457 0.5037958334817694 0.350276261432581 0.0
Cu Cu 0.010511901063859392 -0.004180766981987795 0.5051294005350437 0.0
Cu Cu 0.4843003769856581 0.5125123576491517 0.0834068383503194 0.0
Si Si -0.026158697245187237 0.003666118375089983 0.03346515553257671 0.0
Si Si 0.5287848730896172 0.45483708238127907 0.535425515217666 0.0
N N 0.0213177342537585 0.1398304059242803 0.5660544239927242 0.0
N N 0.48492907788023026 0.6521886678335506 -0.03581569422938695 0.0
N N -0.031023789492280848 0.8459199180063157 0.41094869989984695 0.0
N N 0.47801649664619467 0.3580136401821976 0.03486490517130069 0.0
N N 0.8566792490519642 0.03283815973338157 0.4457561873601937 0.0
N N 0.3311298312626299 0.491942800535802 -0.019007562022160845 0.0
N N 0.18191117910951488 -0.0002568826471833859 0.5626906026567026 0.0
N N 0.6334392372294554 0.4852623298034964 -0.025739881823959372 0.0
F3 F3 0.021934418760250426 -0.012347659116469682 0.7870542694986531 0.0
F3 F3 0.43546307205937834 0.4603691248718825 0.2844171833373081 0.0
F3 F3 -0.03521513258682235 0.04963823579757738 0.23870450909379853 0.0
F3 F3 0.5193192385622256 0.5072478455677747 0.6941251518224039 0.0
F F 0.5530951236520653 0.5553533073687023 0.45780789804475747 0.0
F F 0.5988095715510436 0.40285532115679124 0.4919521995502257 0.0
F F 0.3682216815883113 0.5864776281866637 0.5138143647207815 0.0
F F 0.4057044471556285 0.4577838631456295 0.46839850496391133 0.0
F F 0.10266522234646715 0.14694085158041614 -0.010190495543596785 0.0
F F 0.9345278281902349 0.8980057984630951 0.028748978269202263 0.0
F F 0.9302821192689884 0.09576877658437663 0.003869250031657884 0.0
F F 0.05775238185641591 0.9507775306707841 0.021894632090280024 0.0
