_cell_length_a 13.649
_cell_length_b 13.649
_cell_length_c 8.092
_cell_angle_alpha 90.0
_cell_angle_beta 90.0
_cell_angle_gamma 90.0
_symmetry_space_group_name_H-M         'P 1'
_symmetry_Int_Tables_number            1
loop_
_symmetry_equiv_pos_as_xyz
   'x, y, z'
                         
loop_
_atom_site_label
_atom_site_type_symbol
_atom_site_fract_x 
_atom_site_fract_y
_atom_site_fract_z
_atom_site_charge
C7 C7 -0.16860569683578103 0.3323444455369131 0.3808429931269625 0.0
C9 C9 0.04602148902889846 0.19797202730572272 0.28344782932089646 0.0
C7 C7 0.510970435945195 0.7909795352867763 0.8164121661749616 0.0
C9 C9 0.5113442125382203 0.6957599750603196 0.836509168282837 0.0
C7 C7 -0.06656964393567394 0.6545369386709661 0.3506887104118006 0.0
C9 C9 0.11334968788870231 0.8227676430174444 0.3538826860959716 0.0
C7 C7 0.4349813795340984 0.2032126209081933 0.734673070345544 0.0
C9 C9 0.572665316662008 0.29347091892020055 0.8259612398109656 0.0
C7 C7 0.7198330770400234 0.04918250703951765 0.3537807603438376 0.0
C9 C9 0.7593765559327132 0.0018813706300533587 0.34696218962433595 0.0
C7 C7 0.25152806832538405 0.5128117417176983 0.8655903129406942 0.0
C9 C9 0.2621767433194227 0.5087047096100874 0.8362164409039785 0.0
C7 C7 0.32399613904796226 -0.05097381564016475 0.3857245992136561 0.0
C9 C9 0.185773065734351 -0.06063135268343849 0.2866115180676885 0.0
C7 C7 0.899429840663986 0.5044551137510882 0.8641905549128975 0.0
C9 C9 0.6900695107951647 0.4529628115276905 0.9171554432484529 0.0
C7 C7 -0.03637509916832045 0.2619930999509946 0.6552196025624341 0.0
C9 C9 -0.047128113240646315 0.21033473826725316 0.6800088639903252 0.0
C7 C7 0.5359769462049766 0.7729900202374986 0.13535123646987793 0.0
C9 C9 0.37905146391834366 0.6900433609736039 0.16936518597113276 0.0
C7 C7 -0.007189382323232535 0.7003880728442169 0.7037379657509863 0.0
C9 C9 0.07133892559918303 0.794961050824207 0.6866681902223999 0.0
C7 C7 0.5132872865197816 0.19818823836059488 0.1404784190122599 0.0
C9 C9 0.5398792034605495 0.29468249780799205 0.0506367601186621 0.0
C7 C7 0.2726733269896729 -0.007056154932747566 0.6552756676887821 0.0
C9 C9 0.17839864896386567 -0.038130050157240004 0.6715738635186894 0.0
C7 C7 0.838119986146903 0.504967077332999 0.17498504432350293 0.0
C9 C9 0.7519291715753166 0.5122139115631626 0.1163518299733275 0.0
C7 C7 0.7191884725748309 0.010802425244379002 0.709239859313998 0.0
C9 C9 0.8530527534381455 0.044423884603918495 0.6800621614505657 0.0
C7 C7 0.12225153198156989 0.4976678739832798 0.16999689710896743 0.0
C9 C9 0.34747646606189136 0.514775037914554 0.08502050163726144 0.0
C5 C5 0.03212219531329381 0.4408144157121581 0.5566151366408374 0.0
C8 C8 -0.063439374567841 0.35991749598648265 0.531973375758452 0.0
C5 C5 0.5501560954438813 0.9267980094781074 -0.007816372523976938 0.0
C5 C5 0.567086799064601 0.86127942916572 0.023889792035499773 0.0
C5 C5 0.023759104560233134 0.5620040755583035 0.501312898273445 0.0
C8 C8 0.03342097193577765 0.6630381668282969 0.4895859226389417 0.0
C5 C5 0.5024929352410726 0.034866634144340124 -0.030298197507062596 0.0
C5 C5 0.46828577319355985 0.17098514054151193 0.09105901395048041 0.0
C5 C5 0.5369056810276607 -0.028531866051929613 0.5389816855719242 0.0
C8 C8 0.6229772646804425 0.002183370238190141 0.44441680754081125 0.0
C5 C5 0.0734997702121018 0.4537252494273039 -0.04165292095872087 0.0
C8 C8 0.17833165728409744 0.5208875289089818 -0.04661850667652791 0.0
C5 C5 0.46189047086780777 0.01737315630387207 0.49526482520686355 0.0
C8 C8 0.3161314250850813 0.03520602900909318 0.4518959279694701 0.0
C5 C5 0.9792237887227877 0.5042262533247558 -0.03347484428508059 0.0
C8 C8 0.8490396008303055 0.48453777993631003 0.026286171639451142 0.0
H H -0.16860569683578103 0.37011444553691314 0.26236299312696254 0.0
H H 0.04602148902889846 0.15490202730572272 0.17021782932089646 0.0
H H 0.510970435945195 0.8287495352867764 0.6979321661749616 0.0
H H 0.5113442125382203 0.6526899750603194 0.7232791682828369 0.0
H H -0.06656964393567394 0.616766938670966 0.23220871041180058 0.0
H H 0.11334968788870231 0.8658376430174445 0.24065268609597165 0.0
H H 0.4349813795340984 0.1654426209081933 0.6161930703455439 0.0
H H 0.572665316662008 0.33654091892020055 0.7127312398109654 0.0
H H 0.6820630770400233 0.04918250703951765 0.2353007603438376 0.0
H H 0.8024465559327133 0.0018813706300533587 0.23373218962433592 0.0
H H 0.21375806832538408 0.5128117417176983 0.7471103129406941 0.0
H H 0.3052467433194227 0.5087047096100874 0.7229864409039785 0.0
H H 0.36176613904796223 -0.05097381564016476 0.26724459921365606 0.0
H H 0.14270306573435101 -0.0606313526834385 0.1733815180676885 0.0
H H 0.9371998406639861 0.5044551137510882 0.7457105549128974 0.0
H H 0.6469995107951646 0.4529628115276905 0.8039254432484528 0.0
H H -0.03637509916832045 0.2997630999509946 0.7736996025624342 0.0
H H -0.0471281132406463 0.16726473826725313 0.7932388639903253 0.0
H H 0.5359769462049766 0.8107600202374987 0.2538312364698779 0.0
H H 0.37905146391834366 0.6469733609736037 0.2825951859711328 0.0
H H -0.007189382323232535 0.6626180728442168 0.8222179657509864 0.0
H H 0.07133892559918303 0.838031050824207 0.7998981902223999 0.0
H H 0.5132872865197816 0.1604182383605949 0.25895841901225986 0.0
H H 0.5398792034605495 0.33775249780799205 0.16386676011866214 0.0
H H 0.31044332698967286 -0.007056154932747566 0.7737556676887822 0.0
H H 0.13532864896386568 -0.038130050157240004 0.7848038635186895 0.0
H H 0.8758899861469029 0.504967077332999 0.2934650443235029 0.0
H H 0.7088591715753165 0.5122139115631626 0.22958182997332754 0.0
H H 0.6814184725748308 0.010802425244379002 0.8277198593139979 0.0
H H 0.8961227534381455 0.044423884603918495 0.7932921614505659 0.0
H H 0.08448153198156988 0.4976678739832798 0.2884768971089674 0.0
H H 0.39054646606189136 0.514775037914554 0.19825050163726146 0.0
Cu Cu -0.0025403423711682594 -0.009220618963660224 0.4695394590548248 0.0
Cu Cu 0.5557503989535549 0.5167796096647291 -0.01102953319267347 0.0
Si Si -0.011789459094836665 -0.029760730756076 0.0010317888581196327 0.0
Si Si 0.5033038578747632 0.5191758317613118 0.49245785531792946 0.0
N N -0.0052812902154497025 0.13649715803872894 0.49540559381916044 0.0
N N 0.5004393784572869 0.6412686883474342 -0.016471516535090734 0.0
N N -0.018079927156323564 0.8411959469738086 0.46070388792042066 0.0
N N 0.534670106636777 0.37549218011675933 -0.021027396669386984 0.0
N N 0.844880288116947 -0.027599611500650423 0.48576969344419774 0.0
N N 0.3762571795708262 0.4793089177976077 0.04502961099052419 0.0
N N 0.1396217315921326 -0.0015229467280000882 0.5248351608885141 0.0
N N 0.6270377467551108 0.5026525381860207 -0.007202863260897754 0.0
F3 F3 0.007843478667656433 0.010225835458667029 0.7779264490271017 0.0
F3 F3 0.476848635046198 0.5217776766820968 0.3042749726431724 0.0
F3 F3 0.035448201672510934 0.0006696954943017215 0.2814052753351372 0.0
F3 F3 0.5028704313902109 0.4922740000048335 0.6997733189848663 0.0
F F 0.6198826891021614 0.5843737162463896 0.5072630955435387 0.0
F F 0.5513501359552161 0.39969251676283163 0.5609244845343766 0.0
F F 0.4052308392398535 0.5919910026346611 0.48642173546083717 0.0
F F 0.42370886455832785 0.38152957696439554 0.5441461682555511 0.0
F F 0.07693631451225677 0.0024512571816623007 -0.021529291799101458 0.0
F F 0.8956120676904455 0.9777018216757619 0.005821420166403929 0.0
F F 0.9184546719151002 0.08413825780332962 -0.023974928657692567 0.0
F F 0.07421669510744233 0.909292253166337 -0.005375451704811831 0.0
