_cell_length_a 13.649
_cell_length_b 13.649
_cell_length_c 8.092
_cell_angle_alpha 90.0
_cell_angle_beta 90.0
_cell_angle_gamma 90.0
_symmetry_space_group_name_H-M         'P 1'
_symmetry_Int_Tables_number            1
loop_
_symmetry_equiv_pos_as_xyz
   'x, y, z'
                         
loop_
_atom_site_label
_atom_site_type_symbol
_atom_site_fract_x 
_atom_site_fract_y
_atom_site_fract_z
_atom_site_charge
C7 C7 -0.059973266452808795 0.3069859511376796 0.345297868616706 0.0
C9 C9 -0.007082378330043817 0.18631219233603433 0.415243728557516 0.0
C7 C7 0.44431443281388827 0.8333256763643374 0.7839495241867649 0.0
C9 C9 0.45480068596535295 0.7010942616475356 0.8384439160674193 0.0
C7 C7 -0.006462482781242236 0.688106599591571 0.35176907050580547 0.0
C9 C9 -0.07867515089882757 0.8173736994077605 0.2920424908802177 0.0
C7 C7 0.4891339846335084 0.17910201444082807 0.7701581405084862 0.0
C9 C9 0.5235258687037072 0.3110870462669311 0.8419453976421012 0.0
C7 C7 0.691116243849701 0.008062282552500714 0.3693066151759005 0.0
C9 C9 0.7936065970657792 -0.0013901868973860611 0.36608541016370005 0.0
C7 C7 0.03322427160457045 0.449357956621 0.8550507866608775 0.0
C9 C9 0.30741500797776056 0.5111595212140831 0.8288657707891609 0.0
C7 C7 0.27528286978047495 0.00025502020396883803 0.45063677718563777 0.0
C9 C9 0.12986236501711546 -0.006850601819246327 0.37912614532730227 0.0
C7 C7 0.8273345107439029 0.49650581209767236 0.8002673950492848 0.0
C9 C9 0.7445087515939934 0.5203116448276364 0.8422067808864502 0.0
C7 C7 -0.022742383033496908 0.2766893125992504 0.7520831208396528 0.0
C9 C9 0.008265033484880994 0.23677464482988753 0.5320554662157642 0.0
C7 C7 0.4727341316275363 0.7477183755550596 0.1305263906812048 0.0
C9 C9 0.64310261658071 0.6384158526891862 0.18639933278390491 0.0
C7 C7 0.05710244810917647 0.6655099508344036 0.6312278761427002 0.0
C9 C9 -0.041714944246353594 0.7739701825549664 0.661404826847051 0.0
C7 C7 0.5271392065480484 0.21627043280883532 0.13884224657698557 0.0
C9 C9 0.5968046589869869 0.31141996706294556 0.12412549420146508 0.0
C7 C7 0.29043807629051327 -0.021826813808229813 0.6367511937704413 0.0
C9 C9 0.17903214845504525 -0.014419915763257227 0.5880488204748145 0.0
C7 C7 0.7794224377802617 0.48173855494225676 0.13951967830575399 0.0
C9 C9 0.7363991456506384 0.4894648223041745 0.08881420683165213 0.0
C7 C7 0.7034451269218288 -0.014864393671874521 0.6359680077193945 0.0
C9 C9 0.8526402310230203 -0.026041328766305806 0.6981101233434672 0.0
C7 C7 0.22428636412882694 0.46993275581125077 0.09914186083934584 0.0
C9 C9 0.335426426747548 0.47302736143965624 0.12808289217897 0.0
C5 C5 0.038429282916044 0.4463308325862922 0.4979230572655966 0.0
C8 C8 -0.00021300544141278067 0.345615784066571 0.4860693496699048 0.0
C5 C5 0.4842756438762047 0.9389163412903299 0.09661005999085631 0.0
C5 C5 0.4928821486931782 0.8834761782439942 -0.03153478097642863 0.0
C5 C5 -0.01251553524287467 0.5557544823216604 0.5253497200780342 0.0
C8 C8 -0.05635971729796599 0.615340283334575 0.5022153380745837 0.0
C5 C5 0.5340816333971146 0.05068861669185305 -0.04254303350766617 0.0
C5 C5 0.5507853461955503 0.17191267404027866 -0.032125196991155056 0.0
C5 C5 0.5797296388258356 -0.024409135306110514 0.5508326767411111 0.0
C8 C8 0.605929947850843 -0.009710355103848966 0.4814461357280513 0.0
C5 C5 0.03694007960412853 0.49118975851143826 -0.001412653658200787 0.0
C8 C8 0.13636421194701778 0.4943714797640189 0.05673240838242066 0.0
C5 C5 0.4391944709079423 0.005887964436052649 0.5404777527254614 0.0
C8 C8 0.3003052367808545 -0.043894596333182344 0.48198010466992625 0.0
C5 C5 0.9915206180029641 0.5211532925556721 -0.03727213402257692 0.0
C8 C8 0.7953280613460791 0.5162551074087147 -0.005026293631581091 0.0
H H -0.05997326645280879 0.3447559511376796 0.22681786861670597 0.0
H H -0.007082378330043818 0.14324219233603439 0.302013728557516 0.0
H H 0.4443144328138883 0.8710956763643374 0.6654695241867647 0.0
H H 0.454800685965353 0.6580242616475356 0.7252139160674193 0.0
H H -0.006462482781242236 0.650336599591571 0.23328907050580544 0.0
H H -0.07867515089882755 0.8604436994077607 0.17881249088021772 0.0
H H 0.48913398463350843 0.14133201444082807 0.6516781405084863 0.0
H H 0.5235258687037072 0.3541570462669312 0.728715397642101 0.0
H H 0.653346243849701 0.008062282552500714 0.25082661517590055 0.0
H H 0.8366765970657792 -0.001390186897386061 0.2528554101637001 0.0
H H -0.004545728395429542 0.44935795662100003 0.7365707866608775 0.0
H H 0.3504850079777606 0.5111595212140831 0.7156357707891607 0.0
H H 0.313052869780475 0.00025502020396883803 0.3321567771856378 0.0
H H 0.08679236501711543 -0.006850601819246327 0.26589614532730227 0.0
H H 0.8651045107439028 0.4965058120976724 0.6817873950492848 0.0
H H 0.7014387515939934 0.5203116448276364 0.7289767808864501 0.0
H H -0.022742383033496908 0.3144593125992503 0.870563120839653 0.0
H H 0.008265033484880991 0.1937046448298875 0.6452854662157642 0.0
H H 0.4727341316275363 0.7854883755550596 0.24900639068120475 0.0
H H 0.64310261658071 0.5953458526891862 0.2996293327839049 0.0
H H 0.05710244810917646 0.6277399508344035 0.7497078761427002 0.0
H H -0.041714944246353594 0.8170401825549665 0.7746348268470511 0.0
H H 0.5271392065480484 0.17850043280883535 0.25732224657698555 0.0
H H 0.5968046589869869 0.3544899670629455 0.2373554942014651 0.0
H H 0.3282080762905133 -0.021826813808229813 0.7552311937704415 0.0
H H 0.13596214845504526 -0.014419915763257228 0.7012788204748146 0.0
H H 0.8171924377802616 0.48173855494225676 0.257999678305754 0.0
H H 0.6933291456506383 0.4894648223041745 0.20204420683165214 0.0
H H 0.6656751269218287 -0.014864393671874523 0.7544480077193946 0.0
H H 0.8957102310230204 -0.026041328766305806 0.8113401233434673 0.0
H H 0.18651636412882694 0.46993275581125077 0.21762186083934584 0.0
H H 0.378496426747548 0.47302736143965624 0.24131289217897003 0.0
Cu Cu 0.027902832085709914 -0.025607669287265933 0.46299342980576047 0.0
Cu Cu 0.49565146148525063 0.48998463496604255 -0.01853181528849554 0.0
Si Si -0.0035889710604624352 0.00749593735498312 0.011332428180747185 0.0
Si Si 0.5095319360188342 0.583007866790536 0.5066640915770158 0.0
N N -3.30980579716043e-05 0.135691351366073 0.510618461533221 0.0
N N 0.5075770728111427 0.6243049272968246 -0.04422659921941808 0.0
N N -0.00035979779316964403 0.8583610388323133 0.5334971778576402 0.0
N N 0.49801916849649164 0.31768904086076627 -0.02781585069630938 0.0
N N 0.8535907084620196 -0.00882623792553665 0.488635121610922 0.0
N N 0.3829060482946611 0.5129015199419674 -0.019562842110986085 0.0
N N 0.14761428644971306 0.0050688194383156976 0.4828620352016856 0.0
N N 0.6561480671707485 0.5145815602925169 0.0094682261563626 0.0
F3 F3 -0.00889183133064899 -0.010341953869200466 0.7844622760327191 0.0
F3 F3 0.5121297720401201 0.47920508289483704 0.30969857723185373 0.0
F3 F3 0.008027457241561278 -0.054033024186152634 0.16395789249507017 0.0
F3 F3 0.5091492032057391 0.46687441073029107 0.727199250993687 0.0
F F 0.6199866756290383 0.5928677829947633 0.4937547114122834 0.0
F F 0.6131280846857019 0.4528416434591215 0.46654599904518385 0.0
F F 0.4294194718940003 0.5726897023196243 0.4877103944608603 0.0
F F 0.4124273967401915 0.44339710191588144 0.5273328462762511 0.0
F F 0.09343498005416745 0.1000725726286059 -0.019397100500754307 0.0
F F 0.8943183189212187 0.959897901361249 0.04513309476302403 0.0
F F 0.938725763690054 0.10445917921019603 0.006997626294216072 0.0
F F 0.06670509199998241 0.9412574482968961 0.0033423390721301254 0.0
