_cell_length_a 13.649
_cell_length_b 13.649
_cell_length_c 8.092
_cell_angle_alpha 90.0
_cell_angle_beta 90.0
_cell_angle_gamma 90.0
_symmetry_space_group_name_H-M         'P 1'
_symmetry_Int_Tables_number            1
loop_
_symmetry_equiv_pos_as_xyz
   'x, y, z'
                         
loop_
_atom_site_label
_atom_site_type_symbol
_atom_site_fract_x 
_atom_site_fract_y
_atom_site_fract_z
_atom_site_charge
C7 C7 0.0037841704491739236 0.3246382422739823 0.43569037703068564 0.0
C9 C9 0.12270804394876308 0.17709969824580474 0.3434354369900267 0.0
C7 C7 0.44701722850382 0.8286351999871576 0.8732490026688504 0.0
C9 C9 0.49127807710379984 0.6766831319204969 0.8164695228161585 0.0
C7 C7 -0.014710074474739956 0.6583088186135921 0.36002354472562065 0.0
C9 C9 0.009470732879478012 0.7576480867712554 0.32813136722260533 0.0
C7 C7 0.5648797080400191 0.22933475912201293 0.8289104963850933 0.0
C9 C9 0.47703670745730714 0.3115484625294857 0.8702309228663474 0.0
C7 C7 0.783497783778554 -0.04951996597357238 0.39832608280174225 0.0
C9 C9 0.7420310431974503 0.034199908019230875 0.43899636146862486 0.0
C7 C7 0.19228797446638404 0.4746741875984488 0.8502587477747205 0.0
C9 C9 0.25616346775702986 0.5143817191932878 0.8582544050822561 0.0
C7 C7 0.26916945414943927 0.04525813510262626 0.400543276927234 0.0
C9 C9 0.2715821857249783 -0.01432235030141839 0.44482678963201366 0.0
C7 C7 0.8337259553088208 0.5371742438370501 0.8514018694479534 0.0
C9 C9 0.7373784567104424 0.5040426546372574 0.7922770944375469 0.0
C7 C7 0.00047647196636698184 0.2946525363264946 0.694964476415325 0.0
C9 C9 0.04625968678112292 0.24172350717730487 0.6727332928924369 0.0
C7 C7 0.5718092691986385 0.7670828098236832 0.19200603536419134 0.0
C9 C9 0.49941934420281886 0.7103089168721148 0.1012579228923016 0.0
C7 C7 -0.07186320167410741 0.693292915243414 0.6299244538974766 0.0
C9 C9 -0.02049898303339145 0.8082191635179917 0.6669552263200622 0.0
C7 C7 0.40555949177016104 0.19743222756542878 0.17036044329518035 0.0
C9 C9 0.4996482858433871 0.3198220895062174 0.07835543292108338 0.0
C7 C7 0.17625798910905444 -0.02757299061976082 0.6598719343191524 0.0
C9 C9 0.28530028306896726 0.0005191579080149895 0.6477070505031535 0.0
C7 C7 0.7374217908387788 0.5010484223669941 0.09310994698524519 0.0
C9 C9 0.7534688815695006 0.4863508416046112 0.13589911499495144 0.0
C7 C7 0.695034847737776 0.020649453043339223 0.6140695636814969 0.0
C9 C9 0.8580119228326464 0.01138053355000593 0.6273049642146321 0.0
C7 C7 0.15071197816391596 0.48372612619442334 0.15905699107826432 0.0
C9 C9 0.2871107407880263 0.4975698147854536 0.1832452798311623 0.0
C5 C5 0.036730912278820915 0.48915191110689965 0.38139811775729004 0.0
C8 C8 -0.00680441945901592 0.38079775924847287 0.4525373283175187 0.0
C5 C5 0.526184046819136 0.9383779649858383 0.00021714344548236177 0.0
C5 C5 0.45952483380828085 0.8962665621243658 0.023812492145135696 0.0
C5 C5 -0.04270014825945893 0.540319656750831 0.49229515959964154 0.0
C8 C8 0.05645516296103848 0.6698319621071176 0.46472870541687084 0.0
C5 C5 0.49361320626551675 0.045964761234217555 -0.08435976527643495 0.0
C5 C5 0.5015368250734342 0.1444775335646944 -0.013086193192273799 0.0
C5 C5 0.5484732821273474 -0.02400202278073035 0.5144445629372271 0.0
C8 C8 0.6658735638111266 0.003408182199919609 0.5484773627011158 0.0
C5 C5 0.04808868948235615 0.5058901298435344 -0.0376828749820242 0.0
C8 C8 0.055335680688369256 0.4958602815436721 -0.00228735575048927 0.0
C5 C5 0.4649101021149713 0.003918233877731478 0.43917640831510035 0.0
C8 C8 0.3490253612135899 0.01025097153781534 0.42921932267536755 0.0
C5 C5 0.9838876489602927 0.4794659371034263 0.025536221619869667 0.0
C8 C8 0.86682135399989 0.44025811329224823 -0.0003257910241597181 0.0
H H 0.003784170449173923 0.3624082422739823 0.31721037703068555 0.0
H H 0.12270804394876307 0.13402969824580474 0.23020543699002674 0.0
H H 0.44701722850382003 0.8664051999871577 0.7547690026688503 0.0
H H 0.4912780771037999 0.6336131319204967 0.7032395228161584 0.0
H H -0.014710074474739954 0.6205388186135921 0.24154354472562062 0.0
H H 0.009470732879478016 0.8007180867712554 0.21490136722260536 0.0
H H 0.5648797080400191 0.19156475912201293 0.7104304963850931 0.0
H H 0.4770367074573072 0.3546184625294857 0.7570009228663473 0.0
H H 0.745727783778554 -0.04951996597357238 0.2798460828017422 0.0
H H 0.7851010431974503 0.03419990801923087 0.3257663614686249 0.0
H H 0.15451797446638404 0.47467418759844887 0.7317787477747205 0.0
H H 0.2992334677570299 0.5143817191932878 0.7450244050822561 0.0
H H 0.3069394541494393 0.04525813510262626 0.282063276927234 0.0
H H 0.22851218572497825 -0.014322350301418391 0.3315967896320136 0.0
H H 0.8714959553088208 0.5371742438370501 0.7329218694479533 0.0
H H 0.6943084567104423 0.5040426546372574 0.6790470944375468 0.0
H H 0.00047647196636698184 0.3324225363264945 0.813444476415325 0.0
H H 0.046259686781122925 0.1986535071773049 0.785963292892437 0.0
H H 0.5718092691986385 0.8048528098236831 0.31048603536419134 0.0
H H 0.49941934420281886 0.6672389168721147 0.21448792289230162 0.0
H H -0.07186320167410741 0.655522915243414 0.7484044538974768 0.0
H H -0.020498983033391455 0.8512891635179918 0.7801852263200623 0.0
H H 0.40555949177016104 0.15966222756542878 0.2888404432951803 0.0
H H 0.4996482858433871 0.3628920895062174 0.1915854329210834 0.0
H H 0.2140279891090544 -0.02757299061976082 0.7783519343191524 0.0
H H 0.2422302830689672 0.0005191579080149895 0.7609370505031535 0.0
H H 0.7751917908387789 0.5010484223669941 0.21158994698524516 0.0
H H 0.7103988815695006 0.4863508416046112 0.2491291149949515 0.0
H H 0.6572648477377759 0.02064945304333922 0.7325495636814969 0.0
H H 0.9010819228326464 0.011380533550005931 0.7405349642146322 0.0
H H 0.11294197816391596 0.48372612619442334 0.2775369910782643 0.0
H H 0.3301807407880263 0.4975698147854536 0.2964752798311623 0.0
Cu Cu 0.00022724658079149726 -0.003012427610393922 0.46719652072917756 0.0
Cu Cu 0.5105352934057013 0.5144553610017011 0.015629571158757304 0.0
Si Si 0.00991268164776305 0.017653084947238044 -0.001584351971747939 0.0
Si Si 0.5253035493475828 0.5407371631051511 0.45210295843812115 0.0
N N 0.019223072030805453 0.15676321057403164 0.5004639935223614 0.0
N N 0.466737526926056 0.6488527668941866 -0.005764192782040633 0.0
N N 0.008456840423959007 0.855814052457414 0.5327908195562698 0.0
N N 0.48146057985337437 0.38213830660201564 -0.035961413034308595 0.0
N N 0.8513142425057768 0.00015774684297923362 0.5343710347055816 0.0
N N 0.33942066906644897 0.4858049119989448 -0.044107447836827254 0.0
N N 0.14397220468303665 0.0157983408632778 0.47717957081615753 0.0
N N 0.6389686994505281 0.5104641123917283 0.011300796405490652 0.0
F3 F3 -0.032435884878781206 -0.026191295589654134 0.7733234890897159 0.0
F3 F3 0.49427785279514963 0.5563420596408287 0.27193276591246773 0.0
F3 F3 0.015449620621792627 0.009620292360785411 0.16066894005300905 0.0
F3 F3 0.5255137089972166 0.4544580857686674 0.728221511747663 0.0
F F 0.5762745837706845 0.6203769419806785 0.5087762053389383 0.0
F F 0.5834549963546891 0.4552012386488434 0.5696083414286028 0.0
F F 0.423756600915779 0.5955541293435327 0.45097350118603563 0.0
F F 0.41576514492009065 0.4404687459161666 0.48164389635377636 0.0
F F 0.0796912143845372 0.054103077574738576 -0.03389392578901178 0.0
F F 0.9065585794629226 0.9587101926113735 -0.008775630652476196 0.0
F F 0.9273610203067865 0.08719029254499897 -0.031025269540497297 0.0
F F 0.09587354334712665 0.9199134578842084 -0.009554833853676767 0.0
