_cell_length_a 13.649
_cell_length_b 13.649
_cell_length_c 8.092
_cell_angle_alpha 90.0
_cell_angle_beta 90.0
_cell_angle_gamma 90.0
_symmetry_space_group_name_H-M         'P 1'
_symmetry_Int_Tables_number            1
loop_
_symmetry_equiv_pos_as_xyz
   'x, y, z'
                         
loop_
_atom_site_label
_atom_site_type_symbol
_atom_site_fract_x 
_atom_site_fract_y
_atom_site_fract_z
_atom_site_charge
C7 C7 0.06143472664302828 0.3442117309804118 0.4281793587152396 0.0
C9 C9 0.00514855477967556 0.19008030045196686 0.3083208995378163 0.0
C7 C7 0.47844839962508445 0.79803789109167 0.9037958553366605 0.0
C9 C9 0.4635772445841853 0.704753323792401 0.8580930545988259 0.0
C7 C7 0.08816083127354893 0.6607876459083759 0.35118928885510997 0.0
C9 C9 0.04387228630297284 0.8159111298731312 0.37338667094762545 0.0
C7 C7 0.5409848460930401 0.19031792682961843 0.8772460801582411 0.0
C9 C9 0.5635098851802707 0.27328323362104134 0.8669420357059936 0.0
C7 C7 0.7468119176490006 -0.0166401563986313 0.31363168212269815 0.0
C9 C9 0.7814000526055926 -0.0470099652354928 0.37967837187725406 0.0
C7 C7 0.14170411511910566 0.46238523098468604 0.8305021340876305 0.0
C9 C9 0.39211697973876575 0.4859170131320393 0.8705243091755407 0.0
C7 C7 0.34905616164059927 -0.013207579729557412 0.38711570031064557 0.0
C9 C9 0.2674170746093199 -0.0453098074088193 0.4051418378962458 0.0
C7 C7 0.7825836349015692 0.4859014504678421 0.863332348394241 0.0
C9 C9 0.6968702965315623 0.49721111291730724 0.8299766814338667 0.0
C7 C7 0.03850897516443067 0.31205580257330817 0.5955734589312517 0.0
C9 C9 0.004768172884461153 0.18127367255869398 0.660907446846983 0.0
C7 C7 0.46487780133397255 0.7529870051276942 0.1379767940390786 0.0
C9 C9 0.605963461399632 0.6943177121025255 0.19042317199633021 0.0
C7 C7 0.06971168049552877 0.6792036587261147 0.577929146421344 0.0
C9 C9 -0.05258527415838494 0.7888110241975882 0.6107554827637907 0.0
C7 C7 0.5115339555683583 0.22493076995981837 0.1991107467696549 0.0
C9 C9 0.49294395538511976 0.2934176756949298 0.22971300178553897 0.0
C7 C7 0.33474766063927974 -0.021936685486705042 0.6687853571613649 0.0
C9 C9 0.31563331725614935 0.005244966096608439 0.6641788845761035 0.0
C7 C7 0.7580043642459983 0.4842093697403737 0.15738350726077394 0.0
C9 C9 0.6379408120108608 0.49956241840551563 0.15602441040332285 0.0
C7 C7 0.6848376405201769 0.00884440541348743 0.6931824037038233 0.0
C9 C9 0.8199956495972246 0.0008035645044513958 0.6483576903092737 0.0
C7 C7 0.2146516926296203 0.5627220149127365 0.1825777926476249 0.0
C9 C9 0.3308563625317285 0.5290839215251789 0.20549976804193798 0.0
C5 C5 0.05179550781439142 0.45196179058707975 0.5336109969731635 0.0
C8 C8 -0.0004733576364798259 0.35116142517689325 0.4492967101952569 0.0
C5 C5 0.4971975935299267 0.9743844031956936 -0.07803933488535354 0.0
C5 C5 0.4841339431605064 0.8494819462974411 0.03545032105486937 0.0
C5 C5 0.03380469018126729 0.5519756317203653 0.6256468270192027 0.0
C8 C8 0.02815287069499564 0.6724636437788277 0.47695501046298583 0.0
C5 C5 0.524014051701202 0.06525572723113775 -0.03586975538490547 0.0
C5 C5 0.47012641927387133 0.1671381158057309 0.033502580002029436 0.0
C5 C5 0.537871252593843 -0.03216029298035964 0.49574656620440805 0.0
C8 C8 0.6907012928297617 -0.012551728320906577 0.5601649175173737 0.0
C5 C5 0.04857924938712681 0.5119805686999368 -0.016104291928578585 0.0
C8 C8 0.09858780128868629 0.5067709785876912 -0.06696583599559824 0.0
C5 C5 0.4368576355483125 -0.032285149877747776 0.5122816290523596 0.0
C8 C8 0.3115243921557547 0.015494955235398495 0.4013405965505722 0.0
C5 C5 1.005519493775283 0.5334145484763021 -0.02617251584377715 0.0
C8 C8 0.8939669464883213 0.4906752929199919 -0.029977545328794562 0.0
H H 0.06143472664302828 0.3819817309804118 0.30969935871523957 0.0
H H 0.00514855477967556 0.14701030045196686 0.19509089953781625 0.0
H H 0.47844839962508445 0.8358078910916701 0.7853158553366604 0.0
H H 0.46357724458418537 0.6616833237924008 0.7448630545988257 0.0
H H 0.08816083127354893 0.6230176459083758 0.23270928885510994 0.0
H H 0.04387228630297283 0.8589811298731312 0.26015667094762546 0.0
H H 0.5409848460930401 0.15254792682961843 0.7587660801582411 0.0
H H 0.5635098851802707 0.31635323362104134 0.7537120357059935 0.0
H H 0.7090419176490005 -0.0166401563986313 0.19515168212269815 0.0
H H 0.8244700526055928 -0.0470099652354928 0.26644837187725406 0.0
H H 0.10393411511910566 0.4623852309846861 0.7120221340876305 0.0
H H 0.4351869797387658 0.48591701313203933 0.7572943091755405 0.0
H H 0.3868261616405993 -0.013207579729557413 0.2686357003106456 0.0
H H 0.22434707460931988 -0.045309807408819305 0.29191183789624586 0.0
H H 0.8203536349015692 0.48590145046784217 0.744852348394241 0.0
H H 0.6538002965315622 0.4972111129173073 0.7167466814338667 0.0
H H 0.03850897516443067 0.3498258025733082 0.7140534589312518 0.0
H H 0.004768172884461154 0.13820367255869398 0.7741374468469832 0.0
H H 0.46487780133397255 0.7907570051276943 0.25645679403907856 0.0
H H 0.605963461399632 0.6512477121025253 0.30365317199633024 0.0
H H 0.06971168049552877 0.6414336587261146 0.6964091464213441 0.0
H H -0.05258527415838494 0.8318810241975882 0.7239854827637908 0.0
H H 0.5115339555683583 0.18716076995981837 0.31759074676965493 0.0
H H 0.49294395538511976 0.3364876756949298 0.342943001785539 0.0
H H 0.3725176606392797 -0.021936685486705042 0.7872653571613649 0.0
H H 0.27256331725614935 0.005244966096608439 0.7774088845761036 0.0
H H 0.7957743642459983 0.4842093697403737 0.2758635072607739 0.0
H H 0.5948708120108607 0.49956241840551563 0.2692544104033229 0.0
H H 0.6470676405201768 0.00884440541348743 0.8116624037038235 0.0
H H 0.8630656495972248 0.0008035645044513957 0.7615876903092738 0.0
H H 0.1768816926296203 0.5627220149127365 0.3010577926476249 0.0
H H 0.37392636253172845 0.5290839215251789 0.318729768041938 0.0
Cu Cu -0.0045753520408174575 0.0009140124753570214 0.4766887136687386 0.0
Cu Cu 0.5027519122477169 0.5178923604838421 0.04377620526546013 0.0
Si Si -0.015608572557856967 0.02610607954263986 -0.038298055847401556 0.0
Si Si 0.5174042763378398 0.5099535217897334 0.45989565121606524 0.0
N N 0.051717646589305104 0.17160009762426687 0.47109801370076604 0.0
N N 0.4978273768357357 0.649474072796594 -0.022812114933313674 0.0
N N -0.021136639369303475 0.8564566903478361 0.5354654837357307 0.0
N N 0.5053120004444722 0.3691954935419844 0.020019316511650752 0.0
N N 0.868935456132097 -0.0015228565357769603 0.49794909481129573 0.0
N N 0.3258797003331605 0.4517482380989163 0.026107487316966313 0.0
N N 0.13660873983980243 0.017764969959901383 0.48424461989693773 0.0
N N 0.6588539786049362 0.5029053074868317 0.001402567300539034 0.0
F3 F3 -0.019624358531432892 0.08126567263533264 0.7770340024699003 0.0
F3 F3 0.4923455740944628 0.43194948987332726 0.26623707041287553 0.0
F3 F3 -0.060393441594256816 0.004992747384152592 0.1743096826917306 0.0
F3 F3 0.5035794331963606 0.5037478055204603 0.6079219062746638 0.0
F F 0.6098559472047769 0.6484045984377591 0.5261592268074539 0.0
F F 0.5876128306324341 0.38482020298427383 0.49235895631630494 0.0
F F 0.40560395542980987 0.5844865186761664 0.49489966488125225 0.0
F F 0.421248146973731 0.39548268426639216 0.5507961477690878 0.0
F F 0.0662084748478688 0.11508200306152287 0.06872678523707602 0.0
F F 0.9349112730547028 0.8810984308600776 0.033822308302080745 0.0
F F 0.9324556365412886 0.1209900784983688 0.08212442570384644 0.0
F F 0.06471678267179612 0.8972396057380202 -0.007188146492690285 0.0
