_cell_length_a 13.649
_cell_length_b 13.649
_cell_length_c 8.092
_cell_angle_alpha 90.0
_cell_angle_beta 90.0
_cell_angle_gamma 90.0
_symmetry_space_group_name_H-M         'P 1'
_symmetry_Int_Tables_number            1
loop_
_symmetry_equiv_pos_as_xyz
   'x, y, z'
                         
loop_
_atom_site_label
_atom_site_type_symbol
_atom_site_fract_x 
_atom_site_fract_y
_atom_site_fract_z
_atom_site_charge
C7 C7 -0.03638366781753441 0.30182121963155456 0.36877326213954104 0.0
C9 C9 -0.04270849893198611 0.15215747607470653 0.3665403154034141 0.0
C7 C7 0.41431023793821065 0.7857799608211692 0.8267679079768808 0.0
C9 C9 0.5318872960042411 0.7061190151616811 0.8475578757016095 0.0
C7 C7 -0.028640998519918973 0.6618636575282392 0.3216481867572885 0.0
C9 C9 -0.020507100946409434 0.8538053044802761 0.39652738029469353 0.0
C7 C7 0.5228266124272859 0.17395825356968433 0.8738529505085643 0.0
C9 C9 0.5753484320683988 0.33916785309173 0.7933969590509037 0.0
C7 C7 0.7085689494298325 -0.013817216603892712 0.3500495418132966 0.0
C9 C9 0.8225346252196027 0.050317717554089765 0.40014247804028186 0.0
C7 C7 0.1909470121300245 0.5142343163993045 0.8118862546439786 0.0
C9 C9 0.29417601425602885 0.5137514550163235 0.8363118073733454 0.0
C7 C7 0.2233306755908639 -0.018030731978054788 0.3383010909856672 0.0
C9 C9 0.17949243997909475 0.019104136404787007 0.28452187552370034 0.0
C7 C7 0.8115783694075785 0.5217775685524976 0.8096000008629318 0.0
C9 C9 0.6639756104810709 0.5046903888455685 0.7836912057665556 0.0
C7 C7 0.06221268843973608 0.2935930232112228 0.5850375297580306 0.0
C9 C9 0.08477866875933628 0.17323852630267805 0.6586518319093227 0.0
C7 C7 0.43835117371991256 0.8231659341947072 0.21196227875232002 0.0
C9 C9 0.5065653529553125 0.6792411745384305 0.13992107106976878 0.0
C7 C7 -0.017610846215585313 0.688556960649028 0.6685865552034655 0.0
C9 C9 -0.08249579350931457 0.8343481716644996 0.6783258483403602 0.0
C7 C7 0.5035538945507677 0.18490638279853377 0.17052731970036925 0.0
C9 C9 0.48556712221498266 0.2970621069450505 0.12605032802641383 0.0
C7 C7 0.3423562933095733 0.03589056646657361 0.7743614827433205 0.0
C9 C9 0.13570357273078754 -0.021061670102795527 0.6749843027929106 0.0
C7 C7 0.7751750914761754 0.511306686852939 0.15016917295771395 0.0
C9 C9 0.6638775351861931 0.4621325123605391 0.15755489224372185 0.0
C7 C7 0.7337279838102149 -0.012657271458959621 0.664812618910916 0.0
C9 C9 0.760733023687008 -0.0013330948207115074 0.6471566294475223 0.0
C7 C7 0.21045432792079555 0.5099390532907665 0.14743374113804278 0.0
C9 C9 0.28397986988996954 0.5088610823728953 0.13907885522594643 0.0
C5 C5 -0.08525151855020893 0.4606697489150902 0.5052295153250914 0.0
C8 C8 0.016113334873136407 0.3350747803599748 0.429595364439179 0.0
C5 C5 0.4883689153902824 0.934927529268337 -0.00947983115953138 0.0
C5 C5 0.511399546662668 0.8877510837605962 -0.03638505203095693 0.0
C5 C5 -0.03109278198893163 0.5428621343525596 0.5256429050950129 0.0
C8 C8 0.003974815670229633 0.6586607929278847 0.4667470186587529 0.0
C5 C5 0.4679481895262664 0.037492517849690946 -0.03775906579426935 0.0
C5 C5 0.503224370946494 0.12444340335863131 0.02203989696819745 0.0
C5 C5 0.5279892315689734 0.0010653741084947935 0.5702498523004893 0.0
C8 C8 0.662668707472216 -0.012569173805749985 0.40900247721375693 0.0
C5 C5 0.06899154259883858 0.47291971858747006 0.016828881433514697 0.0
C8 C8 0.18780425872287926 0.5134652244086363 -0.02640579484019699 0.0
C5 C5 0.41687452806116615 0.007522104808211807 0.5014482826195614 0.0
C8 C8 0.3368155582491153 -0.016959363720660703 0.48328585380193023 0.0
C5 C5 0.9384132139360332 0.5230463013658171 0.014669665347111602 0.0
C8 C8 0.8357780654307799 0.5588807416767333 0.056753503757315846 0.0
H H -0.03638366781753441 0.33959121963155453 0.250293262139541 0.0
H H -0.04270849893198612 0.10908747607470651 0.25331031540341414 0.0
H H 0.4143102379382107 0.8235499608211693 0.7082879079768808 0.0
H H 0.5318872960042411 0.663049015161681 0.7343278757016093 0.0
H H -0.028640998519918973 0.6240936575282391 0.2031681867572885 0.0
H H -0.020507100946409434 0.8968753044802763 0.2832973802946936 0.0
H H 0.5228266124272859 0.13618825356968434 0.7553729505085642 0.0
H H 0.5753484320683988 0.38223785309173003 0.6801669590509036 0.0
H H 0.6707989494298324 -0.013817216603892714 0.23156954181329661 0.0
H H 0.8656046252196029 0.05031771755408975 0.28691247804028186 0.0
H H 0.1531770121300245 0.5142343163993045 0.6934062546439785 0.0
H H 0.33724601425602885 0.5137514550163235 0.7230818073733454 0.0
H H 0.2611006755908639 -0.018030731978054788 0.21982109098566713 0.0
H H 0.13642243997909476 0.019104136404787007 0.17129187552370034 0.0
H H 0.8493483694075786 0.5217775685524976 0.6911200008629318 0.0
H H 0.6209056104810708 0.5046903888455685 0.6704612057665555 0.0
H H 0.06221268843973608 0.33136302321122285 0.7035175297580307 0.0
H H 0.08477866875933628 0.13016852630267806 0.7718818319093228 0.0
H H 0.43835117371991256 0.8609359341947072 0.33044227875232 0.0
H H 0.5065653529553125 0.6361711745384303 0.2531510710697688 0.0
H H -0.017610846215585313 0.650786960649028 0.7870665552034656 0.0
H H -0.08249579350931456 0.8774181716644996 0.7915558483403603 0.0
H H 0.5035538945507677 0.14713638279853378 0.2890073197003692 0.0
H H 0.48556712221498266 0.3401321069450504 0.23928032802641386 0.0
H H 0.38012629330957326 0.035890566466573605 0.8928414827433206 0.0
H H 0.09263357273078754 -0.021061670102795527 0.7882143027929106 0.0
H H 0.8129450914761754 0.511306686852939 0.26864917295771396 0.0
H H 0.620807535186193 0.4621325123605391 0.2707848922437219 0.0
H H 0.6959579838102148 -0.01265727145895962 0.7832926189109162 0.0
H H 0.8038030236870081 -0.0013330948207115076 0.7603866294475223 0.0
H H 0.17268432792079555 0.5099390532907665 0.2659137411380428 0.0
H H 0.3270498698899695 0.5088610823728953 0.2523088552259464 0.0
Cu Cu -0.013494097794459063 0.01885122919386517 0.4714286573318013 0.0
Cu Cu 0.5068021888277365 0.4981350647123509 -0.024025698462918806 0.0
Si Si 0.012400391295124746 -0.04179740504982984 0.0054292506342621385 0.0
Si Si 0.5146685986219055 0.45579971095077665 0.5044901144211835 0.0
N N 0.009200567781701658 0.17049256576677357 0.5144312222959853 0.0
N N 0.4898739966269737 0.6862243255438581 0.006974503376960066 0.0
N N 0.023137607390790068 0.8710361479486822 0.517585514395077 0.0
N N 0.5263005856435953 0.3638679347446454 0.05216560107645935 0.0
N N 0.8827505588624104 0.002340875261358215 0.47578366988371484 0.0
N N 0.3784055810013504 0.4825240149054289 -0.02350080044518157 0.0
N N 0.1131067007380615 -0.014658720874505106 0.4372543369624674 0.0
N N 0.6610638631058081 0.5047556927886141 0.039252818525501984 0.0
F3 F3 0.010657541162729465 0.00469377225736351 0.7426884547075076 0.0
F3 F3 0.48687005847817616 0.49712592704909114 0.3337572229972044 0.0
F3 F3 0.03624915379548323 -0.0008220812340744396 0.2516635769161775 0.0
F3 F3 0.5013918434853968 0.5078736004438626 0.7521346427964992 0.0
F F 0.6034767417260658 0.614910650734778 0.537323876851483 0.0
F F 0.5982956297452418 0.3654145686633875 0.4851758039086497 0.0
F F 0.3912577908238875 0.5733346412699589 0.425005639268615 0.0
F F 0.39942121232059286 0.42943153428974334 0.5310554927193157 0.0
F F 0.114421328428791 0.06917997017964883 -0.022674227057671775 0.0
F F 0.913894183755743 0.9111800936229195 0.03416270859195361 0.0
F F 0.9063579412576194 0.09790712445510706 -0.044569486814827856 0.0
F F 0.07599307733052789 0.8905034912577064 -0.017244212435635998 0.0
