_cell_length_a 13.649
_cell_length_b 13.649
_cell_length_c 8.092
_cell_angle_alpha 90.0
_cell_angle_beta 90.0
_cell_angle_gamma 90.0
_symmetry_space_group_name_H-M         'P 1'
_symmetry_Int_Tables_number            1
loop_
_symmetry_equiv_pos_as_xyz
   'x, y, z'
                         
loop_
_atom_site_label
_atom_site_type_symbol
_atom_site_fract_x 
_atom_site_fract_y
_atom_site_fract_z
_atom_site_charge
C7 C7 0.09700865553023737 0.32034475341484936 0.3740330577701731 0.0
C9 C9 -0.09557898244008853 0.1706988691056362 0.25929029693823724 0.0
C7 C7 0.40706030928124737 0.8129584722077031 0.8303329778806888 0.0
C9 C9 0.4587113126173017 0.6924992580806187 0.8290738990684442 0.0
C7 C7 -0.038783354739570376 0.653960627313465 0.36372452322657794 0.0
C9 C9 0.03625320465350834 0.7971371070005735 0.35366113575016916 0.0
C7 C7 0.5625085737425868 0.160550792517386 0.8967431384201892 0.0
C9 C9 0.4968961133334911 0.3009475942019424 0.8413832842312191 0.0
C7 C7 0.7278523923838414 0.009455815600060454 0.3932730363514932 0.0
C9 C9 0.8359130780923112 0.047877783006667375 0.3160500150418614 0.0
C7 C7 0.2518987089620493 0.49408742064140804 0.848427229542794 0.0
C9 C9 0.28523130853430867 0.5410422817246574 0.7945513926205073 0.0
C7 C7 0.2153408541353656 -0.00283738916115229 0.42371790269143195 0.0
C9 C9 0.19809669667255128 -0.028193278084320504 0.3526090907497886 0.0
C7 C7 0.8540411647279679 0.5308684151867885 0.846633278184568 0.0
C9 C9 0.6715602631632265 0.502407081349009 0.9411419980529613 0.0
C7 C7 0.041792931169014794 0.2825802001434185 0.6512905906261637 0.0
C9 C9 0.04825363178505781 0.19962020329729913 0.6317922614093557 0.0
C7 C7 0.5140670295922548 0.8095722981557133 0.14744184794442808 0.0
C9 C9 0.47652689532817905 0.6734057210756702 0.2385204463194877 0.0
C7 C7 -0.045205706004585226 0.7153729420191137 0.5740949254292063 0.0
C9 C9 -0.01922359886257502 0.8088251897331484 0.6549312162467779 0.0
C7 C7 0.5385088133578755 0.18842267210923053 0.14503858305329756 0.0
C9 C9 0.6406021743556285 0.2858898834836474 0.052648383104164934 0.0
C7 C7 0.36996505282417536 0.008430083497248553 0.6607145519024056 0.0
C9 C9 0.16533256011053055 -0.004562729330140432 0.647060141072907 0.0
C7 C7 0.6901977939204029 0.49922857981799673 0.08773442766875465 0.0
C9 C9 0.6758720953986059 0.4763486187546476 0.10494142158055875 0.0
C7 C7 0.6495379424528583 0.07058430063020181 0.6423973807393808 0.0
C9 C9 0.9114524834207685 -0.013958184089620447 0.6820750356684391 0.0
C7 C7 0.17453981163136736 0.5241218801372375 0.14004366441507712 0.0
C9 C9 0.23843701011371762 0.49976026719904226 0.10773300229678313 0.0
C5 C5 0.02273529740247581 0.48512781101619956 0.5015784042429429 0.0
C8 C8 -0.04652426192976148 0.3763214721659225 0.5366776377665302 0.0
C5 C5 0.47822556027657437 1.0018253272142152 -0.055468952515897875 0.0
C5 C5 0.502813656412102 0.8297798245704004 0.03371015000055477 0.0
C5 C5 -0.004401547765125098 0.5339870822863795 0.430095913769088 0.0
C8 C8 0.014625029538688147 0.665898830804331 0.5141388970941388 0.0
C5 C5 0.49080581280226093 0.051981883038818226 -0.013808274249789273 0.0
C5 C5 0.44602029179136343 0.23473545673805277 0.007432589033768581 0.0
C5 C5 0.5393928789489298 0.002509131412231939 0.5180106476931903 0.0
C8 C8 0.633190983694127 0.01306941660475843 0.4496868915873228 0.0
C5 C5 0.006783916686856664 0.49966881107368666 0.016469854704641983 0.0
C8 C8 0.10462799028876005 0.5001321840624994 0.031024853981664664 0.0
C5 C5 0.471491496462656 0.038084543747346385 0.4974692408328197 0.0
C8 C8 0.36841779121617374 -0.006736817653503097 0.42784666699367363 0.0
C5 C5 0.9387308277029258 0.5332700610209633 -0.006687798535410757 0.0
C8 C8 0.8466388888834592 0.5016358984162816 0.06125965369313841 0.0
H H 0.09700865553023735 0.3581147534148494 0.25555305777017306 0.0
H H -0.09557898244008853 0.1276288691056362 0.14606029693823724 0.0
H H 0.4070603092812474 0.8507284722077032 0.7118529778806888 0.0
H H 0.45871131261730175 0.6494292580806186 0.7158438990684441 0.0
H H -0.03878335473957037 0.616190627313465 0.24524452322657797 0.0
H H 0.03625320465350835 0.8402071070005737 0.24043113575016917 0.0
H H 0.5625085737425868 0.122780792517386 0.7782631384201891 0.0
H H 0.49689611333349115 0.34401759420194244 0.728153284231219 0.0
H H 0.6900823923838413 0.009455815600060454 0.2747930363514932 0.0
H H 0.8789830780923112 0.047877783006667375 0.20282001504186145 0.0
H H 0.21412870896204939 0.4940874206414081 0.729947229542794 0.0
H H 0.3283013085343087 0.5410422817246574 0.6813213926205073 0.0
H H 0.25311085413536566 -0.00283738916115229 0.305237902691432 0.0
H H 0.15502669667255128 -0.028193278084320504 0.23937909074978853 0.0
H H 0.891811164727968 0.5308684151867885 0.7281532781845679 0.0
H H 0.6284902631632263 0.502407081349009 0.8279119980529612 0.0
H H 0.04179293116901479 0.3203502001434185 0.7697705906261637 0.0
H H 0.048253631785057816 0.15655020329729913 0.7450222614093558 0.0
H H 0.5140670295922548 0.8473422981557133 0.2659218479444281 0.0
H H 0.47652689532817905 0.63033572107567 0.35175044631948776 0.0
H H -0.04520570600458523 0.6776029420191136 0.6925749254292063 0.0
H H -0.019223598862575023 0.8518951897331485 0.7681612162467779 0.0
H H 0.5385088133578755 0.15065267210923053 0.2635185830532975 0.0
H H 0.6406021743556285 0.32895988348364735 0.16587838310416497 0.0
H H 0.40773505282417527 0.008430083497248553 0.7791945519024056 0.0
H H 0.12226256011053054 -0.004562729330140433 0.760290141072907 0.0
H H 0.727967793920403 0.49922857981799673 0.20621442766875464 0.0
H H 0.6328020953986059 0.4763486187546476 0.21817142158055877 0.0
H H 0.6117679424528583 0.07058430063020181 0.7608773807393808 0.0
H H 0.9545224834207686 -0.013958184089620447 0.7953050356684391 0.0
H H 0.13676981163136737 0.5241218801372375 0.25852366441507707 0.0
H H 0.28150701011371754 0.49976026719904226 0.22096300229678317 0.0
Cu Cu -0.0004684794942599153 0.011044463986490937 0.45822704623566063 0.0
Cu Cu 0.4808229128423372 0.5094305356305049 -0.010494879637213883 0.0
Si Si -0.012059596390478605 0.01146457444915314 0.0027593254397923423 0.0
Si Si 0.5108030256660957 0.535435091842708 0.480891914759598 0.0
N N -0.03486532546985469 0.15645799124387913 0.41967162026214144 0.0
N N 0.52729096806408 0.6122189496666746 -0.014965630130235037 0.0
N N 0.034026439381810145 0.8615673852994336 0.5527206792253238 0.0
N N 0.4773287050065236 0.3531065746133345 0.02806571847415837 0.0
N N 0.8414973444026824 0.04773420580421264 0.5299286978319314 0.0
N N 0.34876138346169877 0.4909712739284462 -0.0085520264829529 0.0
N N 0.1270742036169328 0.015782046787792003 0.4968817759296604 0.0
N N 0.6411841223364866 0.4842605939600052 -0.004711631821406795 0.0
F3 F3 -0.02556100196365045 -0.0017547620326275805 0.8417915834725926 0.0
F3 F3 0.4668675706602754 0.5275679499836361 0.2442002761996721 0.0
F3 F3 -0.009990341572810686 -0.056479687507554714 0.21412669116218833 0.0
F3 F3 0.47954789127216657 0.49384214385984104 0.6951185098853389 0.0
F F 0.5804443034756777 0.5526623633764968 0.4881562546041472 0.0
F F 0.6298891323846691 0.39052653008751875 0.47141405720461627 0.0
F F 0.3908777518718095 0.5793994750852619 0.501258920018419 0.0
F F 0.42182399234529766 0.39718647044465044 0.5348357234201027 0.0
F F 0.09584166416992106 0.05926092028353939 0.07697515643007166 0.0
F F 0.9000103731164847 0.9123765814716245 -0.03435177911646672 0.0
F F 0.8968555464745717 0.056931650344243696 0.08468837127231339 0.0
F F 0.043692940766116205 0.948300512672294 -0.057745518084449735 0.0
