_cell_length_a 13.649
_cell_length_b 13.649
_cell_length_c 8.092
_cell_angle_alpha 90.0
_cell_angle_beta 90.0
_cell_angle_gamma 90.0
_symmetry_space_group_name_H-M         'P 1'
_symmetry_Int_Tables_number            1
loop_
_symmetry_equiv_pos_as_xyz
   'x, y, z'
                         
loop_
_atom_site_label
_atom_site_type_symbol
_atom_site_fract_x 
_atom_site_fract_y
_atom_site_fract_z
_atom_site_charge
C7 C7 0.1163378985556781 0.31393258063773394 0.34847994186136627 0.0
C9 C9 -0.015014442609526078 0.17500279644694353 0.38338963332836207 0.0
C7 C7 0.5689141686889356 0.8170928976220894 0.846699732276099 0.0
C9 C9 0.49454366420591767 0.7223314316978799 0.956837944611043 0.0
C7 C7 0.12289024174157835 0.7350562846129778 0.3928192916104 0.0
C9 C9 -0.04669257974161911 0.7924295636039561 0.40079891117746036 0.0
C7 C7 0.4585514631261722 0.18363456354189542 0.8687257988157839 0.0
C9 C9 0.5156394735053591 0.27510530886473555 0.8287717395127813 0.0
C7 C7 0.7707843607587138 -0.019910294680803867 0.3702941273559589 0.0
C9 C9 0.8093386193780676 -0.006010658911151947 0.282971863317232 0.0
C7 C7 0.20994685561721085 0.5225086841157776 0.8754658570936361 0.0
C9 C9 0.3053069109116927 0.5180864813886322 0.8204160863228958 0.0
C7 C7 0.23804362436679788 0.00740915756389833 0.3571908207687289 0.0
C9 C9 0.15934227548548197 0.007784563608538555 0.4301632789679308 0.0
C7 C7 0.8063609709537182 0.5267177491821247 0.853353865576639 0.0
C9 C9 0.6342872904928689 0.4585051167849799 0.8186971055427087 0.0
C7 C7 0.06664259670716957 0.2689558444060758 0.6649226082470472 0.0
C9 C9 -0.026178393562598306 0.17892672471178528 0.6143190369897319 0.0
C7 C7 0.5541899950456581 0.8169234792773158 0.1990166698068647 0.0
C9 C9 0.4924782274840671 0.7553478419857352 0.06080510540991744 0.0
C7 C7 -0.09052753256218027 0.6683566042312417 0.6121433646432611 0.0
C9 C9 -0.051565617403210535 0.8134506263564737 0.7301989344906654 0.0
C7 C7 0.5096098785306524 0.2223433349781045 0.12939737725344164 0.0
C9 C9 0.4839497844666228 0.27206872811573374 0.14167445675373008 0.0
C7 C7 0.31994690892109134 -0.005150959537467747 0.6764953265319018 0.0
C9 C9 0.18809550179763815 -0.008892039222798914 0.673787626343155 0.0
C7 C7 0.8141818495807109 0.4805838697604162 0.09424053991786055 0.0
C9 C9 0.7122839734716123 0.5025997102998073 0.18843874039394237 0.0
C7 C7 0.7342437404725464 -0.03977581459335378 0.587857185550762 0.0
C9 C9 0.7812261325891674 0.040570529462518 0.739850624308072 0.0
C7 C7 0.24422643987677647 0.4909099266315246 0.1249769456282076 0.0
C9 C9 0.23938528664920045 0.48032417627935103 0.13900442046558467 0.0
C5 C5 0.025077623815312103 0.43390505435131366 0.4840661864015697 0.0
C8 C8 0.007500714431361838 0.3010861125931291 0.5307212772206222 0.0
C5 C5 0.5102601273917587 0.9472357532306135 0.03370126973567841 0.0
C5 C5 0.48608768707258715 0.8177862655781538 0.029384966143663684 0.0
C5 C5 -0.029596373508886463 0.5505680377113966 0.40100306016907916 0.0
C8 C8 0.019677660838058164 0.6703353309487964 0.44737686278444344 0.0
C5 C5 0.4879310585007659 0.07245722718295547 0.10892728642071314 0.0
C5 C5 0.5002001232184 0.16005748942517925 0.05899762484568254 0.0
C5 C5 0.5478434939632209 -0.01574142665563981 0.5418013468466433 0.0
C8 C8 0.626079049534624 0.025349291966632312 0.5756755434302514 0.0
C5 C5 0.07599211438652519 0.5366129511340085 -0.023365735080741887 0.0
C8 C8 0.15795248080085836 0.49859924151265295 0.015845029102105567 0.0
C5 C5 0.4717526342952983 -0.0011980960357612768 0.4394762855219029 0.0
C8 C8 0.37210509159312727 0.003636405114975351 0.457114080381311 0.0
C5 C5 0.9640794409411213 0.5009119158775481 -0.019470085798451286 0.0
C8 C8 0.8304507276698819 0.5021652185497967 0.006278952391497612 0.0
H H 0.11633789855567808 0.35170258063773396 0.2299999418613663 0.0
H H -0.015014442609526078 0.13193279644694356 0.270159633328362 0.0
H H 0.5689141686889356 0.8548628976220894 0.7282197322760989 0.0
H H 0.49454366420591767 0.6792614316978799 0.8436079446110429 0.0
H H 0.12289024174157835 0.6972862846129778 0.27433929161039994 0.0
H H -0.046692579741619125 0.8354995636039562 0.28756891117746036 0.0
H H 0.45855146312617223 0.14586456354189542 0.7502457988157839 0.0
H H 0.5156394735053591 0.3181753088647356 0.7155417395127811 0.0
H H 0.7330143607587137 -0.019910294680803867 0.25181412735595887 0.0
H H 0.8524086193780678 -0.006010658911151946 0.16974186331723198 0.0
H H 0.17217685561721086 0.5225086841157776 0.7569858570936361 0.0
H H 0.3483769109116927 0.5180864813886322 0.7071860863228957 0.0
H H 0.2758136243667979 0.0074091575638983295 0.23871082076872885 0.0
H H 0.11627227548548197 0.007784563608538555 0.3169332789679308 0.0
H H 0.8441309709537183 0.5267177491821247 0.7348738655766389 0.0
H H 0.5912172904928688 0.45850511678497996 0.7054671055427086 0.0
H H 0.06664259670716959 0.30672584440607575 0.7834026082470472 0.0
H H -0.02617839356259831 0.13585672471178528 0.727549036989732 0.0
H H 0.5541899950456581 0.8546934792773159 0.3174966698068647 0.0
H H 0.4924782274840671 0.7122778419857352 0.17403510540991748 0.0
H H -0.09052753256218027 0.6305866042312417 0.7306233646432614 0.0
H H -0.051565617403210535 0.8565206263564737 0.8434289344906656 0.0
H H 0.5096098785306524 0.1845733349781045 0.2478773772534416 0.0
H H 0.4839497844666228 0.31513872811573374 0.25490445675373014 0.0
H H 0.35771690892109126 -0.005150959537467747 0.7949753265319018 0.0
H H 0.14502550179763815 -0.008892039222798914 0.7870176263431552 0.0
H H 0.851951849580711 0.4805838697604162 0.21272053991786052 0.0
H H 0.6692139734716122 0.5025997102998073 0.30166874039394237 0.0
H H 0.6964737404725463 -0.03977581459335379 0.7063371855507621 0.0
H H 0.8242961325891675 0.040570529462518 0.8530806243080721 0.0
H H 0.20645643987677648 0.4909099266315246 0.24345694562820758 0.0
H H 0.2824552866492004 0.48032417627935103 0.2522344204655847 0.0
Cu Cu 0.02510466807066284 0.01544509190512245 0.4775378815374553 0.0
Cu Cu 0.5099385307667192 0.5126116884059376 0.0502720842503744 0.0
Si Si 0.006736485641256415 0.02805316202072749 -0.008131305535660197 0.0
Si Si 0.4511676053047274 0.49360747118144827 0.4798167874216334 0.0
N N -0.0206494068687076 0.13555905285543374 0.5025246530720303 0.0
N N 0.5077797000323861 0.6551860560628736 -0.003472367582698535 0.0
N N -0.009928107257499156 0.8658557886195309 0.48681240169221174 0.0
N N 0.5086843789119424 0.3384058035432081 -0.019643168005044835 0.0
N N 0.8377522953713556 0.018965879738140894 0.4633984115414948 0.0
N N 0.3406713801631569 0.5226243124403249 0.044903815983962744 0.0
N N 0.12832446186929164 -0.0007363318727158641 0.4795660916762347 0.0
N N 0.6372174401671515 0.46080333712186244 0.03491950526222149 0.0
F3 F3 0.019920724084637475 -0.020147962247739445 0.7644573153456349 0.0
F3 F3 0.4651654849882278 0.468941501883063 0.24156772910013832 0.0
F3 F3 -0.034842225020577405 0.001504584296526235 0.20515943821953997 0.0
F3 F3 0.4927263982878819 0.4982784545757443 0.6831054802957814 0.0
F F 0.5726462894521888 0.6012589693488608 0.533424099976827 0.0
F F 0.5815241068359919 0.396388437755438 0.544827848755811 0.0
F F 0.42621139719365253 0.5884943365478212 0.5484991564362847 0.0
F F 0.4268418168689498 0.380832410048358 0.5093475300833933 0.0
F F 0.0866422677080323 0.0602925147034961 -0.03581646598118216 0.0
F F 0.9364077955952158 0.8770201420296779 0.04500421106855731 0.0
F F 0.9157555395552376 0.0600902978989362 0.013999684935959305 0.0
F F 0.07964344406145649 0.9325036636916909 -0.05522097935961428 0.0
