_cell_length_a 8.39304
_cell_length_b 22.23511
_cell_length_c 18.74218
_cell_angle_alpha 90.0
_cell_angle_beta 94.0312
_cell_angle_gamma 90.0
_symmetry_space_group_name_H-M         'P 1'
_symmetry_Int_Tables_number            1
loop_
_symmetry_equiv_pos_as_xyz
   'x, y, z'
                         
loop_
_atom_site_label
_atom_site_type_symbol
_atom_site_fract_x 
_atom_site_fract_y
_atom_site_fract_z
_atom_site_charge
Cd Cd 0.35167950145576127 0.5666679151852015 0.9885959328662738 0.0
O O 0.3613805204774998 0.4417288612053024 1.0527958871395466 0.0
O O 0.20737596496780417 0.5021016444956269 1.0881464952355389 0.0
O O 0.9391958717502779 0.7933624411248267 1.1440526714508805 0.0
O O 0.4089416111755062 0.7673008301120282 1.2906124367630094 0.0
N N 0.467866913138086 0.6453171280845291 1.066659572694529 0.0
N N 0.7148541841504678 0.7597892648985916 1.2076634641466755 0.0
C C 0.2825107874228092 0.4394953196870549 1.074632973006021 0.0
C C 0.2739897057552736 0.4229934786098605 1.1469070665725278 0.0
C C 0.09646285035080268 0.41372801260694203 1.1725079256750635 0.0
H H 0.021552850350802635 0.44458801260694203 1.1598679256750635 0.0
C C 0.125627839350303 0.3581042785941092 1.2437822732877644 0.0
H H 0.02671783935030299 0.3586642785941092 1.2654422732877644 0.0
C C 0.16854879496318545 0.3501491278376376 1.257106003477973 0.0
C C 0.37278255606354993 0.3392406063550772 1.2316329352991495 0.0
C C 0.41312926663176636 0.36145528418274664 1.1595845619240384 0.0
H H 0.5107392666317665 0.35942528418274666 1.1370545619240384 0.0
C C 0.5955284271685408 0.8091211579436456 1.2831294059261773 0.0
C C 0.8325959202695076 0.7763092106161787 1.2217307543276101 0.0
C C 0.5009940820809977 0.6720348564704655 1.0442937543448703 0.0
H H 0.5294040820809978 0.6693048564704656 0.9961637543448704 0.0
C C 0.6384218930937635 0.6988112390515783 1.0904529942547478 0.0
H H 0.7092318930937634 0.7271812390515782 1.0719129942547478 0.0
C C 0.6072592247701705 0.6995596358585097 1.1623351126015484 0.0
C C 0.4762567926622865 0.6658838842706429 1.1622269668124614 0.0
H H 0.4479467926622865 0.6660538842706429 1.2103869668124614 0.0
C C 0.3938201949395677 0.6270119408041814 1.1433454938956573 0.0
H H 0.3203301949395677 0.5984819408041815 1.1597054938956575 0.0
O O 0.3002273240418498 0.6360005256895437 0.8965047137678366 0.0
O O 0.04442105532158254 0.6370245264622504 0.9912205867613954 0.0
O O -0.1484554319098881 0.3805957970781175 0.7522094938247347 0.0
O O 0.33672159889634173 0.3912131445811331 0.6963708901041138 0.0
N N 0.11049286659368944 0.39463321132836865 0.7054893256189151 0.0
N N 0.21889890314648308 0.4842694591341245 0.9050171397987091 0.0
C C 0.15911434407734773 0.672733488583815 0.9331566542081299 0.0
C C 0.04186960717152605 0.7157007124881297 0.9028017624229607 0.0
C C -0.04917980853385328 0.7328230229826768 0.9212564993534075 0.0
H H -0.08338980853385332 0.7080930229826768 0.9585164993534073 0.0
C C 0.18745595473426696 0.24956484648751137 0.6150230943986211 0.0
H H 0.285865954734267 0.25843484648751136 0.5952830943986211 0.0
C C 0.1838617334297844 0.2912609071224157 0.677063361929983 0.0
C C 0.04100123059466334 0.28106080534714983 0.6830493838314673 0.0
C C 0.10853958583712045 0.7320727647374708 0.8506539870284205 0.0
H H 0.20902958583712047 0.7246427647374708 0.8319139870284206 0.0
C C 0.220322357187097 0.33936402516958136 0.6680097065157298 0.0
C C -0.027537331230969936 0.3167010443017734 0.7419254237371488 0.0
C C 0.2926636635854106 0.4859628750894753 0.8429978840239124 0.0
H H 0.3481836635854106 0.5217328750894754 0.8327678840239124 0.0
C C 0.2715380001128513 0.44570821440320285 0.7483702125504522 0.0
H H 0.29984800011285134 0.45417821440320283 0.7012302125504523 0.0
C C 0.1353715415152335 0.4033586937489215 0.8103410488988214 0.0
C C 0.11799008458715525 0.4052180451899949 0.8613294800801199 0.0
H H 0.05801008458715527 0.37078804518999486 0.87318948008012 0.0
C C 0.1200367157409359 0.42600851342853063 0.9109076888299317 0.0
H H 0.0882867157409359 0.4193885134285306 0.9579876888299317 0.0
Cd Cd -0.3084565552377206 1.070904481453033 -0.4731358508446298 0.0
O O -0.41998903404374033 0.9720177821412993 -0.5725246166509357 0.0
O O -0.21657536868849672 1.032712471669673 -0.5780999038797942 0.0
O O -0.9173276383343557 1.2801910743425242 -0.6490122419088171 0.0
O O -0.4419922411370468 1.291447169315978 -0.8030354895521881 0.0
N N -0.4684283654233442 1.102937684264644 -0.5606036991793129 0.0
N N -0.6293497534857243 1.2552525403515031 -0.7040723572661948 0.0
C C -0.3359826920977899 0.9793867769236262 -0.5765579786841204 0.0
C C -0.31518006657499625 0.9159943367012738 -0.6494397879863638 0.0
C C -0.11699587004760537 0.910161868356639 -0.6647687227430235 0.0
H H -0.04208587004760537 0.9410218683566393 -0.6521287227430235 0.0
C C -0.10156151277985524 0.869617357766672 -0.7375857549088375 0.0
H H -0.0026515127798552207 0.870177357766672 -0.7592457549088374 0.0
C C -0.27044486117777494 0.7935350346543387 -0.7408978003928332 0.0
C C -0.36687618124545995 0.7968066397000899 -0.706217769404368 0.0
C C -0.4004178144796848 0.865867325167139 -0.6628236650236716 0.0
H H -0.49802781447968486 0.8638373251671391 -0.6402936650236717 0.0
C C -0.5580058976821035 1.289012492850298 -0.7556834097707825 0.0
C C -0.7782973099730468 1.2955711371406085 -0.7253158669355031 0.0
C C -0.6186020680032724 1.1786625380933722 -0.5536473543289413 0.0
H H -0.6470120680032725 1.175932538093372 -0.5055173543289414 0.0
C C -0.6092679225163917 1.2187461404968285 -0.587151686505567 0.0
H H -0.6800779225163919 1.2471161404968287 -0.568611686505567 0.0
C C -0.5308732844011259 1.2043806298917887 -0.6651635376050643 0.0
C C -0.4426785469352388 1.1429176632173776 -0.6893662330096911 0.0
H H -0.4143685469352388 1.1430876632173776 -0.737526233009691 0.0
C C -0.38662745078148114 1.119823322260015 -0.6074877952508138 0.0
H H -0.3131374507814811 1.091293322260015 -0.6238477952508139 0.0
O O -0.27740401241084545 1.1509328522828346 -0.435813257121444 0.0
O O -0.05110803429703663 1.1129594029703136 -0.48660935162853713 0.0
O O 0.10868807350886713 0.8616150304098498 -0.29460887358261595 0.0
O O -0.34756850803221584 0.8700860176234274 -0.1856356137782283 0.0
N N -0.16319595061279263 0.8760352361768057 -0.2527201515078705 0.0
N N -0.2683967895550916 1.0174960805161202 -0.40920433970446185 0.0
C C -0.09601260446446447 1.155110313230956 -0.4259292014645837 0.0
C C -0.11895927887986876 1.2157651168112567 -0.4290403421388294 0.0
C C 0.0803636679907683 1.2257920457879208 -0.43132108592496504 0.0
H H 0.11457366799076828 1.2010620457879209 -0.46858108592496506 0.0
C C -0.20577303515337647 0.7812400057954029 -0.0768166377617296 0.0
H H -0.3041830351533764 0.7901100057954029 -0.05707663776172962 0.0
C C -0.10445664875513783 0.7831217710277585 -0.12694956527353693 0.0
C C 0.01725140039330515 0.7884962642765656 -0.14800437720338389 0.0
C C -0.1226451333552881 1.2563810200464582 -0.3540975632841161 0.0
H H -0.22313513335528806 1.2489510200464584 -0.33535756328411614 0.0
C C -0.1988005670287116 0.8599509844410812 -0.16419571228276358 0.0
C C -0.006013406346124571 0.8235623422869935 -0.21415571568584665 0.0
C C -0.22979856561013126 1.0147412492801333 -0.30470542369095016 0.0
H H -0.28531856561013125 1.0505112492801334 -0.2944754236909502 0.0
C C -0.2188148828913247 0.9634676947593122 -0.2554631346845341 0.0
H H -0.2471248828913247 0.9719376947593121 -0.20832313468453412 0.0
C C -0.1468912795929063 0.9198907231917632 -0.2881157547860751 0.0
C C -0.08197638963476965 0.9058713640097751 -0.3713968567703369 0.0
H H -0.021996389634769655 0.871441364009775 -0.38325685677033694 0.0
C C -0.12864535362484913 0.9658095357118068 -0.44641654101718725 0.0
H H -0.09689535362484912 0.9591895357118069 -0.49349654101718726 0.0
Cd Cd -0.3173633682281243 -0.5403290513284051 -0.9769902459668202 0.0
O O -0.4305173550554886 -0.4643509271059652 -1.0235119843752298 0.0
O O -0.23503683262288258 -0.501331655782297 -1.0681205598017152 0.0
O O -0.8993742836511579 -0.778030221120943 -1.1736428596794501 0.0
O O -0.4332510788174014 -0.7467578839617505 -1.2499935103438942 0.0
N N -0.4184139414723435 -0.6278495815175857 -1.0852047666595148 0.0
N N -0.6923552232086002 -0.7755282802306073 -1.2098097482230004 0.0
C C -0.30996978406588815 -0.4600367769792727 -1.1036978730452132 0.0
C C -0.26018433591559464 -0.40931195270856224 -1.1635818834202787 0.0
C C -0.12927032578044204 -0.4268536197241567 -1.1588910285502303 0.0
H H -0.05436032578044198 -0.4577136197241567 -1.14625102855023 0.0
C C -0.16348724915661708 -0.38126955017133685 -1.244979648085886 0.0
H H -0.06457724915661708 -0.38182955017133685 -1.2666396480858861 0.0
C C -0.2217229356924538 -0.35694164761270214 -1.2789331947960565 0.0
C C -0.2920921175209096 -0.30961096381424097 -1.2225524398785226 0.0
C C -0.35257645218245354 -0.35459525650392004 -1.162738304196221 0.0
H H -0.45018645218245357 -0.35256525650392 -1.1402083041962208 0.0
C C -0.5520669660041139 -0.8035531441454732 -1.2835951001687498 0.0
C C -0.7659814448180393 -0.7855487222610131 -1.1868211328783242 0.0
C C -0.528569454328824 -0.6774126993819864 -1.040769894914885 0.0
H H -0.556979454328824 -0.6746826993819866 -0.9926398949148849 0.0
C C -0.5843099037456427 -0.6980613323250233 -1.072285149348861 0.0
H H -0.6551199037456428 -0.7264313323250233 -1.053745149348861 0.0
C C -0.6088559035047258 -0.7197149773390223 -1.14126564304783 0.0
C C -0.4866817508361018 -0.657456870687638 -1.1731788112056258 0.0
H H -0.4583717508361019 -0.657626870687638 -1.2213388112056258 0.0
C C -0.44926697080630795 -0.6382682300510413 -1.1176873556460694 0.0
H H -0.3757769708063079 -0.6097382300510413 -1.1340473556460695 0.0
O O -0.23555266428177724 -0.6424328658608314 -0.8995959882618839 0.0
O O -0.07588262816418385 -0.6180812913751218 -0.9931199415066234 0.0
O O 0.15797759212947413 -0.3365259933591781 -0.7538840926192387 0.0
O O -0.35300554480315693 -0.38017199193793905 -0.6727963821179029 0.0
N N -0.10623788510285073 -0.3454654470815119 -0.708083863355421 0.0
N N -0.2352791623568031 -0.4910015341087185 -0.9056157156517269 0.0
C C -0.11162859541451664 -0.6525803654843606 -0.927867083276186 0.0
C C -0.05428983411614075 -0.7088616174478043 -0.9407116060020956 0.0
C C 0.14461307923780026 -0.7205002338316385 -0.9376026876699943 0.0
H H 0.17882307923780025 -0.6957702338316386 -0.9748626876699942 0.0
C C -0.23094929049408353 -0.2740342055440413 -0.5868171650665622 0.0
H H -0.3293592904940835 -0.2829042055440413 -0.5670771650665621 0.0
C C -0.10976989181029914 -0.29928753343900394 -0.6380600954597635 0.0
C C 0.055403850462729255 -0.2873621943388307 -0.6666501581105135 0.0
C C -0.08938576620650542 -0.7244100134450328 -0.85655187390373 0.0
H H -0.18987576620650545 -0.7169800134450326 -0.83781187390373 0.0
C C -0.22232355928380143 -0.3642278756291646 -0.6749329917764936 0.0
C C 0.01748174041049987 -0.34573714092392316 -0.7196932133886114 0.0
C C -0.26618041694048766 -0.5068331690495794 -0.8435190672812306 0.0
H H -0.3217004169404877 -0.5426031690495795 -0.8332890672812305 0.0
C C -0.2609109690785433 -0.466539566674882 -0.7783004757376001 0.0
H H -0.2892209690785433 -0.475009566674882 -0.7311604757376001 0.0
C C -0.10727660922631589 -0.41725344696434796 -0.7920703739478538 0.0
C C -0.06614756158418487 -0.3849671766886956 -0.8677611124510606 0.0
H H -0.006167561584184877 -0.3505371766886956 -0.8796211124510608 0.0
C C -0.17590592429417476 -0.4316855240697532 -0.9120363074570194 0.0
H H -0.14415592429417476 -0.4250655240697531 -0.9591163074570195 0.0
Cd Cd 0.2980164782373624 -1.0531565874849982 0.4800139892344122 0.0
O O 0.4453753474416493 -0.9566400530960775 0.5713077263857018 0.0
O O 0.2454127674077823 -1.005096293853602 0.5536590616533038 0.0
O O 0.9041564925802245 -1.2732724277423249 0.6642395769593491 0.0
O O 0.3710807023558341 -1.2794406373495744 0.7818711321520955 0.0
N N 0.4134138063276261 -1.1362927717676035 0.5644127534848986 0.0
N N 0.6138170978136962 -1.2593301789936953 0.7212626982370728 0.0
C C 0.33997526787617577 -0.950762272645205 0.5812488924990268 0.0
C C 0.22007849637418447 -0.9295419954018166 0.6716854847507069 0.0
C C 0.1297755887053088 -0.9080142677137764 0.6987672096315096 0.0
H H 0.05486558870530882 -0.9388742677137766 0.6861272096315096 0.0
C C 0.04903638650544713 -0.8579850050607059 0.7270303184786223 0.0
H H -0.049873613494552896 -0.8585450050607059 0.7486903184786222 0.0
C C 0.2297733831590884 -0.8311174629580029 0.7784248195987741 0.0
C C 0.4209632023627824 -0.8548683289988906 0.6932933988594766 0.0
C C 0.39271953307346413 -0.8647218176442796 0.6324878487081426 0.0
H H 0.4903295330734642 -0.8626918176442796 0.6099578487081425 0.0
C C 0.5755658928556008 -1.2856555495579696 0.7546075637088664 0.0
C C 0.7351806768218239 -1.3078868025306674 0.7537588722601078 0.0
C C 0.4916520263294498 -1.1519549015470132 0.5332903163301187 0.0
H H 0.5200620263294499 -1.149224901547013 0.4851603163301188 0.0
C C 0.6145313763200019 -1.2014445673362864 0.5747939699340466 0.0
H H 0.6853413763200018 -1.2298145673362866 0.5562539699340466 0.0
C C 0.5939201930018891 -1.219375609965606 0.6462498056949044 0.0
C C 0.46786360984924613 -1.1478862771339682 0.7258610593065163 0.0
H H 0.439553609849246 -1.1480562771339684 0.7740210593065162 0.0
C C 0.4559356893738254 -1.1186946584601538 0.6320792698045749 0.0
H H 0.3824456893738254 -1.0901646584601539 0.6484392698045751 0.0
O O 0.21880444488489226 -1.1497917737540695 0.4189384539568331 0.0
O O 0.08665002092890191 -1.129002451791132 0.48767167223451463 0.0
O O -0.1405607559241701 -0.8465329537142489 0.2904108315877762 0.0
O O 0.3952777105594622 -0.8688094910537337 0.17711429916636684 0.0
N N 0.12693883332109807 -0.8654846005507623 0.2246924811816416 0.0
N N 0.2475665364075606 -1.0219871171388002 0.3713794253583413 0.0
C C 0.10532402468053186 -1.1623642866350425 0.4648530300970196 0.0
C C 0.05961423922229021 -1.2088851364326874 0.4050907908366719 0.0
C C -0.0418105452329913 -1.2370731044613787 0.4400381236930835 0.0
H H -0.07602054523299127 -1.2123431044613788 0.47729812369308344 0.0
C C 0.24490265233011346 -0.7621448381352212 0.09739516187151373 0.0
H H 0.3433126523301135 -0.7710148381352212 0.07765516187151375 0.0
C C 0.12984413014159718 -0.8068130413863105 0.15881868289142914 0.0
C C 0.022810420765841687 -0.7845175219905184 0.13290895738306358 0.0
C C 0.1661279099163824 -1.2437241214432748 0.35604248453404386 0.0
H H 0.2666179099163824 -1.236294121443275 0.3373024845340439 0.0
C C 0.1992356129970071 -0.8554406864809889 0.1980635336605818 0.0
C C -0.004135771118583028 -0.8227564815110852 0.2609227458601785 0.0
C C 0.2028532591159423 -1.005151901755753 0.33991272373832526 0.0
H H 0.2583732591159423 -1.0409219017557532 0.3296827237383253 0.0
C C 0.22957619869984122 -0.955715153001808 0.2733058709691749 0.0
H H 0.25788619869984125 -0.964185153001808 0.22616587096917495 0.0
C C 0.10042913827191684 -0.8993373604300027 0.30083950111921876 0.0
C C 0.13799462042962982 -0.881246225523679 0.3654318141156559 0.0
H H 0.07801462042962982 -0.8468162255236792 0.37729181411565593 0.0
C C 0.20699344060131206 -0.9510218654825986 0.4017323571728895 0.0
H H 0.17524344060131203 -0.9444018654825985 0.44881235717288953 0.0
_cell_length_a 8.39304
_cell_length_b 22.23511
_cell_length_c 18.74218
_cell_angle_alpha 90.0
_cell_angle_beta 94.0312
_cell_angle_gamma 90.0
_symmetry_space_group_name_H-M         'P 1'
_symmetry_Int_Tables_number            1
loop_
_symmetry_equiv_pos_as_xyz
   'x, y, z'
                         
loop_
_atom_site_label
_atom_site_type_symbol
_atom_site_fract_x 
_atom_site_fract_y
_atom_site_fract_z
_atom_site_charge
Cd Cd 0.3164156895651427 0.5685787609606493 1.0072556293653059 0.0
O O 0.41650681771181003 0.46909899534133526 1.0298877594367923 0.0
O O 0.24509068379363433 0.49533741347860266 1.0609517044159344 0.0
O O 0.963421639799859 0.7670367088187688 1.1496146759733836 0.0
O O 0.4761981533668128 0.7833324712288963 1.2330107786172326 0.0
N N 0.4671294690651739 0.6167356942588474 1.0622450128924008 0.0
N N 0.5886341996269437 0.7669495369624004 1.1797522718516926 0.0
C C 0.32999713395029023 0.45248529980656227 1.1022817661604614 0.0
C C 0.2297110022366045 0.4322336017408647 1.147387442306653 0.0
C C 0.09485144157361469 0.42806554675094477 1.2022782419122449 0.0
H H 0.019941441573614632 0.45892554675094477 1.1896382419122449 0.0
C C 0.10257934403810441 0.3844104177143506 1.252707439693623 0.0
H H 0.0036693440381043697 0.3849704177143506 1.274367439693623 0.0
C C 0.18524500889775403 0.3496171973709308 1.2283154403902306 0.0
C C 0.35408347300253645 0.3573603938816411 1.1833688592970413 0.0
C C 0.36159038824450584 0.3529302885994303 1.2070319222842358 0.0
H H 0.459200388244506 0.35090028859943034 1.184501922284236 0.0
C C 0.5084767055978884 0.7714093794855174 1.2745014014284495 0.0
C C 0.8284294826387151 0.7892885379822131 1.1999929363630235 0.0
C C 0.5140199960843719 0.6663922707324016 1.0530830124075483 0.0
H H 0.5424299960843718 0.6636622707324016 1.0049530124075483 0.0
C C 0.5405189204893315 0.7152602674150036 1.067075951946772 0.0
H H 0.6113289204893315 0.7436302674150035 1.0485359519467723 0.0
C C 0.5698847850585479 0.6900298515586022 1.1632472635272357 0.0
C C 0.4989677776398124 0.6866557121412838 1.1841551074581727 0.0
H H 0.4706577776398125 0.6868257121412837 1.2323151074581726 0.0
C C 0.39687707648940185 0.6061909458989199 1.1434536449062518 0.0
H H 0.3233870764894019 0.5776609458989199 1.159813644906252 0.0
O O 0.2560089812375904 0.6670356760334476 0.9048843852450652 0.0
O O 0.07775581869976693 0.6245628166515169 0.9787473135703619 0.0
O O -0.12294480220019535 0.3578574978872978 0.8049045401030103 0.0
O O 0.3900014929995116 0.3696142030346464 0.6677860749853544 0.0
N N 0.04853004007946245 0.38544212269171835 0.7420750519325758 0.0
N N 0.26027285493469937 0.5103486776621765 0.8923133656609541 0.0
C C 0.1836392523329314 0.6503974917862476 0.9124145310894461 0.0
C C 0.092682402680656 0.7174381223585798 0.8987537409329103 0.0
C C -0.11629905106073181 0.7116455287469177 0.9187431189763635 0.0
H H -0.1505090510607318 0.6869155287469176 0.9560031189763635 0.0
C C 0.24743412630629855 0.28634888320190094 0.606519056928636 0.0
H H 0.3458441263062985 0.29521888320190093 0.586779056928636 0.0
C C 0.1955456542741615 0.3132846943798763 0.6492250258336326 0.0
C C 0.02608070435320968 0.27152708927912916 0.6737460329675278 0.0
C C 0.11350197379046498 0.7488804787684205 0.8676761631108307 0.0
H H 0.213991973790465 0.7414504787684205 0.8489361631108308 0.0
C C 0.23272187040989578 0.349940006905139 0.6607701694404712 0.0
C C -0.03525781867446783 0.3286805791233973 0.7058075742388041 0.0
C C 0.25438623441651675 0.48104946068239396 0.8301082299581887 0.0
H H 0.30990623441651677 0.5168194606823941 0.8198782299581887 0.0
C C 0.2368186842569652 0.45672936661973146 0.7467641833554186 0.0
H H 0.2651286842569652 0.46519936661973144 0.6996241833554188 0.0
C C 0.10112593007246258 0.40755378626076205 0.8004502535009146 0.0
C C 0.13473571179256272 0.41459807361314427 0.8506351631337974 0.0
H H 0.07475571179256274 0.38016807361314425 0.8624951631337976 0.0
C C 0.18053877352542988 0.4502617867167005 0.9003589181699394 0.0
H H 0.14878877352542985 0.44364178671670046 0.9474389181699394 0.0
Cd Cd -0.27921062647869144 1.0522052348051567 -0.5068588983670281 0.0
O O -0.40897856574695474 0.9743942471513918 -0.5570084876530057 0.0
O O -0.16485433988270823 1.0245223964830434 -0.5942796864316526 0.0
O O -0.8978108764410153 1.3082316581860016 -0.6405267992638952 0.0
O O -0.4466898706203032 1.294741662665423 -0.7944933410819205 0.0
N N -0.42853959686716186 1.1153094297493857 -0.5466890141453833 0.0
N N -0.63585670711101 1.2831008832254707 -0.7047037181126958 0.0
C C -0.2852417880257739 0.9639859188669457 -0.5998407675994333 0.0
C C -0.2881842230590898 0.9293714705903467 -0.6515621809864198 0.0
C C -0.14840699623972015 0.9260389120855957 -0.6612458646486832 0.0
H H -0.07349699623972016 0.956898912085596 -0.6486058646486832 0.0
C C -0.11167981695838833 0.8910114645711554 -0.7117489094128903 0.0
H H -0.01276981695838831 0.8915714645711554 -0.7334089094128902 0.0
C C -0.2318286187556941 0.8377606265181023 -0.7924723241523672 0.0
C C -0.3888130752537203 0.8378929957052245 -0.7158918814365846 0.0
C C -0.43597338407211544 0.8587850778714662 -0.6552828124265279 0.0
H H -0.5335833840721156 0.8567550778714662 -0.6327528124265278 0.0
C C -0.4454059728091238 1.298597790542747 -0.7335625034212594 0.0
C C -0.7674102234791538 1.2763839247284934 -0.7382554519523623 0.0
C C -0.547635368319677 1.1438277785286926 -0.5679024512594952 0.0
H H -0.576045368319677 1.1410977785286924 -0.5197724512594954 0.0
C C -0.6083268648396459 1.209100736887033 -0.5680471564981912 0.0
H H -0.6791368648396461 1.2374707368870332 -0.5495071564981912 0.0
C C -0.6350651646051017 1.2238421602677896 -0.6589567165612765 0.0
C C -0.5053308946215448 1.1642982503955572 -0.6673832760998547 0.0
H H -0.47702089462154473 1.1644682503955572 -0.7155432760998547 0.0
C C -0.4158051845702114 1.118665899085973 -0.6090825211414963 0.0
H H -0.3423151845702113 1.090135899085973 -0.6254425211414966 0.0
O O -0.28272617281901496 1.1465758205837475 -0.40694792790419454 0.0
O O -0.0980521253292204 1.1350187347439151 -0.4818140586154628 0.0
O O 0.09162094232240336 0.8360100531418354 -0.2707685468904017 0.0
O O -0.3249641175615202 0.8681443800825368 -0.15538615062603828 0.0
N N -0.0699811827534817 0.8671518084960079 -0.22134946022175608 0.0
N N -0.27338238946606225 0.9893022345236222 -0.39209091630169973 0.0
C C -0.09729995170480411 1.1636046489749161 -0.42349462043698616 0.0
C C -0.01667464731480903 1.1933204653859495 -0.3974771597984884 0.0
C C 0.087220486573043 1.2228234448747195 -0.4487176556999634 0.0
H H 0.12143048657304298 1.1980934448747196 -0.48597765569996343 0.0
C C -0.16829647971873313 0.7921746634452475 -0.08227407109652936 0.0
H H -0.26670647971873307 0.8010446634452475 -0.06253407109652938 0.0
C C -0.1632772960583593 0.7919525261427497 -0.13708982054472768 0.0
C C 0.05722183187334426 0.78131170316652 -0.17590309447356633 0.0
C C -0.08033729183432683 1.2570560479655624 -0.3452003163054367 0.0
H H -0.18082729183432683 1.2496260479655625 -0.3264603163054367 0.0
C C -0.26545544546001293 0.8801482357434751 -0.18657365880626176 0.0
C C 0.11980368589600586 0.8321582808873191 -0.21862792265786987 0.0
C C -0.25712542315261616 1.0138024768195948 -0.3800014544216826 0.0
H H -0.3126454231526161 1.049572476819595 -0.36977145442168263 0.0
C C -0.16521353297758556 0.949462860140851 -0.27287392148432615 0.0
H H -0.1935235329775856 0.957932860140851 -0.2257339214843262 0.0
C C -0.11330474057538122 0.9017921297794904 -0.26815193182116864 0.0
C C -0.01797509128399823 0.9220512996551467 -0.35815015401679895 0.0
H H 0.04200490871600177 0.8876212996551468 -0.37001015401679893 0.0
C C -0.08496779079239052 0.9440160579890194 -0.40602668191001917 0.0
H H -0.05321779079239051 0.9373960579890194 -0.4531066819100191 0.0
Cd Cd -0.3302283521766449 -0.5635551231316098 -0.9864626281416538 0.0
O O -0.44063582265383205 -0.4544425383863573 -1.0600581796827284 0.0
O O -0.20904044827341403 -0.5203818340665711 -1.0886177094740024 0.0
O O -0.9084953177468585 -0.7771385857108631 -1.1732851641123574 0.0
O O -0.3862646984006457 -0.7777989654130858 -1.2354422611463485 0.0
N N -0.47012935145215934 -0.618364655703456 -1.0708454807292258 0.0
N N -0.6736884561658297 -0.7473603242309043 -1.2198047746538507 0.0
C C -0.30987039260457777 -0.4379368433990307 -1.09724068931149 0.0
C C -0.2781581733769861 -0.42003481303212387 -1.135675094931577 0.0
C C -0.15537014539608066 -0.4194155827964246 -1.188656269333277 0.0
H H -0.08046014539608064 -0.4502755827964246 -1.1760162693332767 0.0
C C -0.12406433887040055 -0.3673485012792852 -1.2274840251786991 0.0
H H -0.02515433887040056 -0.3679085012792852 -1.2491440251786992 0.0
C C -0.2332976122580235 -0.30890454639295883 -1.2507346790552514 0.0
C C -0.33444744100380613 -0.3508782572959361 -1.1934417668868633 0.0
C C -0.410912317362838 -0.3873800741028624 -1.1841805850885314 0.0
H H -0.5085223173628381 -0.3853500741028624 -1.1616505850885313 0.0
C C -0.4479920361812969 -0.7515588186310467 -1.245635617780968 0.0
C C -0.7743523977901112 -0.8126548092916877 -1.1966035072274268 0.0
C C -0.5277544522953452 -0.6525468977519756 -1.0300518575354982 0.0
H H -0.5561644522953452 -0.6498168977519758 -0.9819218575354982 0.0
C C -0.6558579325082865 -0.7139258207165525 -1.07393633839899 0.0
H H -0.7266679325082867 -0.7422958207165524 -1.05539633839899 0.0
C C -0.5836785627824923 -0.6980805143251693 -1.159408427188581 0.0
C C -0.5701808763627927 -0.6626342813473092 -1.206875165769523 0.0
H H -0.5418708763627926 -0.6628042813473092 -1.255035165769523 0.0
C C -0.4027719752096928 -0.6401471525947547 -1.1315160501617245 0.0
H H -0.32928197520969277 -0.6116171525947548 -1.1478760501617247 0.0
O O -0.2833591093682417 -0.6297406822727645 -0.9046545288967742 0.0
O O -0.0983119729835098 -0.6419307239237708 -1.0003854614343102 0.0
O O 0.12027412228197279 -0.3293094778238909 -0.7778678138372741 0.0
O O -0.3186924027243538 -0.3612730322616122 -0.661305081257668 0.0
N N -0.14794281349227817 -0.3713175290103342 -0.7477040887476079 0.0
N N -0.2589469241130675 -0.49175359759271503 -0.9128291456949251 0.0
C C -0.13052675828124938 -0.6446273777937294 -0.9361292078008296 0.0
C C -0.031000080339078844 -0.7295893719957111 -0.9403591959003827 0.0
C C 0.10889737390639705 -0.6931328583403169 -0.9482875908939179 0.0
H H 0.14310737390639705 -0.668402858340317 -0.9855475908939179 0.0
C C -0.18580213734106502 -0.2794292379697188 -0.5948709355861382 0.0
H H -0.284212137341065 -0.28829923796971885 -0.5751309355861383 0.0
C C -0.12561325477051138 -0.3016182755180142 -0.6294623381270589 0.0
C C 0.059038824378083464 -0.2563398218788956 -0.631020522930706 0.0
C C -0.12405924853333838 -0.7672540034391803 -0.8519109269181695 0.0
H H -0.2245492485333384 -0.7598240034391803 -0.8331709269181695 0.0
C C -0.24053293499935477 -0.3950752840916775 -0.6763527334179542 0.0
C C 0.08174741604806814 -0.3392304654528049 -0.7178183721865943 0.0
C C -0.2772730394849635 -0.5370877844390571 -0.8047861050938833 0.0
H H -0.3327930394849635 -0.5728577844390572 -0.7945561050938833 0.0
C C -0.19327583038918947 -0.4763741357954581 -0.7866808510625178 0.0
H H -0.22158583038918944 -0.4848441357954581 -0.7395408510625179 0.0
C C -0.19227190675444208 -0.3923611522734258 -0.791616362668196 0.0
C C -0.09511721966110338 -0.40725643039945136 -0.8670186845762616 0.0
H H -0.0351372196611034 -0.37282643039945135 -0.8788786845762617 0.0
C C -0.121104510018197 -0.4718835181345423 -0.890319621765326 0.0
H H -0.08935451001819697 -0.46526351813454225 -0.937399621765326 0.0
Cd Cd 0.30145354756627285 -1.0532990446876993 0.5068640481783967 0.0
O O 0.37387059566581315 -0.9643353642272127 0.5441485040475239 0.0
O O 0.1962927770197402 -1.014279966778184 0.5569781330581078 0.0
O O 0.9188230714056218 -1.294380309928731 0.629210348158402 0.0
O O 0.3135385537933028 -1.2786717767207487 0.7568030195948748 0.0
N N 0.4426410053121798 -1.1089935114041212 0.5562744048756352 0.0
N N 0.6332542349414498 -1.237137922321922 0.7153276177415645 0.0
C C 0.3688546708004145 -0.9594687951366462 0.5914026588061627 0.0
C C 0.32678011606000396 -0.8873378184867158 0.6656534924522419 0.0
C C 0.2191849954300772 -0.9369163523019156 0.7201582157852549 0.0
H H 0.1442749954300772 -0.9677763523019157 0.7075182157852549 0.0
C C 0.07692550739177256 -0.8862750820214075 0.6936726537129911 0.0
H H -0.02198449260822748 -0.8868350820214075 0.7153326537129912 0.0
C C 0.22429368351838538 -0.8233568646847227 0.7480955959578386 0.0
C C 0.30915572273312725 -0.8603397033879677 0.6862689710753875 0.0
C C 0.3561566021932346 -0.9037771183834363 0.6671295084872723 0.0
H H 0.45376660219323467 -0.9017471183834364 0.6445995084872722 0.0
C C 0.5784313982650843 -1.3076476103918215 0.7825929490624903 0.0
C C 0.7639314332317408 -1.2899246843729988 0.6949043917159538 0.0
C C 0.49870693696571106 -1.157632610557935 0.5381597723054651 0.0
H H 0.5271169369657112 -1.154902610557935 0.49002977230546524 0.0
C C 0.5694274078335729 -1.2181874581459453 0.5705232731925226 0.0
H H 0.6402374078335731 -1.2465574581459453 0.5519832731925226 0.0
C C 0.65773949764185 -1.1929018752922238 0.6528640166652964 0.0
C C 0.4672611048251291 -1.1837831755750576 0.6698997404115882 0.0
H H 0.43895110482512906 -1.1839531755750576 0.718059740411588 0.0
C C 0.4515495852547475 -1.1190102716586652 0.6252589713340696 0.0
H H 0.3780595852547475 -1.0904802716586652 0.6416189713340699 0.0
O O 0.27999843725279444 -1.1468479055858751 0.4220096347924796 0.0
O O 0.033551801935164924 -1.119648870409786 0.4649019229919971 0.0
O O -0.16587233092719222 -0.824616002966604 0.2743936395633818 0.0
O O 0.3921577227262956 -0.8839849211009416 0.21694735178496147 0.0
N N 0.06163514116580463 -0.8790579137621012 0.24647500496773186 0.0
N N 0.21805476601178145 -0.9926211906514719 0.4043766334116387 0.0
C C 0.1634448886818551 -1.136747891065195 0.4152283210663067 0.0
C C 0.04120548518282746 -1.2111304187855094 0.404714576861556 0.0
C C -0.08648243635641072 -1.2121165404151006 0.4245431209417736 0.0
H H -0.1206924363564107 -1.1873865404151007 0.4618031209417736 0.0
C C 0.19824842451900626 -0.7891472007424505 0.09473444726950889 0.0
H H 0.29665842451900626 -0.7980172007424505 0.07499444726950892 0.0
C C 0.12255117510229831 -0.8301658899290397 0.11401472676080043 0.0
C C 0.06118390098887762 -0.7841442888222533 0.18856603980424352 0.0
C C 0.08740554500534163 -1.2254725786981402 0.3538586845485537 0.0
H H 0.1878955450053416 -1.2180425786981404 0.3351186845485537 0.0
C C 0.1929519212879983 -0.8231966500203426 0.18962184317043312 0.0
C C -0.031404073619790675 -0.8345467779187756 0.22928060026573613 0.0
C C 0.3455247572282539 -0.9962141190557293 0.33048249243447203 0.0
H H 0.4010447572282539 -1.0319841190557293 0.3202524924344721 0.0
C C 0.21863900145150822 -0.9739374892464451 0.27807161852888435 0.0
H H 0.24694900145150822 -0.982407489246445 0.23093161852888436 0.0
C C 0.109517217137091 -0.9179137677657793 0.26253145055418814 0.0
C C 0.07910449091686957 -0.8885624064397305 0.34919062063562456 0.0
H H 0.019124490916869564 -0.8541324064397305 0.3610506206356246 0.0
C C 0.13002186963970894 -0.9492999773949417 0.40099131482842226 0.0
H H 0.09827186963970894 -0.9426799773949416 0.4480713148284223 0.0
