_cell_length_a 8.39304
_cell_length_b 22.23511
_cell_length_c 18.74218
_cell_angle_alpha 90.0
_cell_angle_beta 94.0312
_cell_angle_gamma 90.0
_symmetry_space_group_name_H-M         'P 1'
_symmetry_Int_Tables_number            1
loop_
_symmetry_equiv_pos_as_xyz
   'x, y, z'
                         
loop_
_atom_site_label
_atom_site_type_symbol
_atom_site_fract_x 
_atom_site_fract_y
_atom_site_fract_z
_atom_site_charge
Cd Cd 0.31633263452171684 0.5559503135106594 0.989209897623859 0.0
O O 0.42775653417769866 0.4409290950185781 1.0296097790595604 0.0
O O 0.18740532396337042 0.5136011701581424 1.0739634863044634 0.0
O O 0.8024063943046855 0.7635094347050799 1.1182327929358609 0.0
O O 0.35292872579683554 0.7898134109060394 1.2484294472959188 0.0
N N 0.41218498356676175 0.6151850172097941 1.0686212278518852 0.0
N N 0.6453788314700671 0.7567062523991487 1.2490449409900337 0.0
C C 0.3598876072349925 0.4550278638310301 1.081077211547195 0.0
C C 0.26076014033703476 0.4303009664037958 1.1379621810650928 0.0
C C 0.18932248720952477 0.4214305998590036 1.1909379277680563 0.0
H H 0.11441248720952475 0.45229059985900366 1.1782979277680563 0.0
C C 0.09939761525168511 0.3760258089467933 1.2253299401677824 0.0
H H 0.00048761525168507117 0.37658580894679333 1.2469899401677826 0.0
C C 0.1965759090692852 0.322205972735778 1.2445907233029048 0.0
C C 0.42361009673041927 0.326591999486572 1.2314194029108947 0.0
C C 0.36291043969938 0.3674591008278424 1.1629992294515707 0.0
H H 0.46052043969938017 0.3654291008278424 1.1404692294515708 0.0
C C 0.5777765311841553 0.7862997703652566 1.278245000356805 0.0
C C 0.8070806710411592 0.7779770128033805 1.2030568231228087 0.0
C C 0.6089374695844975 0.6654971035637907 1.0549901222587184 0.0
H H 0.6373474695844975 0.6627671035637908 1.0068601222587183 0.0
C C 0.6141248178677888 0.7116081034627092 1.0735455789787964 0.0
H H 0.6849348178677889 0.7399781034627091 1.0550055789787964 0.0
C C 0.5872225115020885 0.7085602676491358 1.1528702386787182 0.0
C C 0.5053909830273275 0.6804787770078028 1.1859078125139724 0.0
H H 0.4770809830273276 0.6806487770078028 1.2340678125139724 0.0
C C 0.45588443372316434 0.6226786813326775 1.1315775793012819 0.0
H H 0.38239443372316434 0.5941486813326775 1.147937579301282 0.0
O O 0.26545171707645077 0.6326401528513708 0.9055473399208119 0.0
O O 0.0700149294193279 0.6203926269420422 0.9535130638616064 0.0
O O -0.24280433862653517 0.3516616672631412 0.7570018228045093 0.0
O O 0.35035201610111066 0.373767899416086 0.6768664296576022 0.0
N N 0.08460304375779014 0.3412297589506602 0.7284653503786505 0.0
N N 0.22530253937527667 0.48413637373003177 0.8960118025549032 0.0
C C 0.1534617969561806 0.6632436899060987 0.8920935757560059 0.0
C C 0.0611004800072628 0.7167446316040069 0.9068856445463569 0.0
C C -0.10655565003892345 0.7235840114481733 0.9287914381539959 0.0
H H -0.14076565003892347 0.6988540114481734 0.9660514381539959 0.0
C C 0.22073719214799495 0.26714577086460517 0.5894736856546414 0.0
H H 0.319147192147995 0.27601577086460516 0.5697336856546414 0.0
C C 0.19904739249325126 0.3098416836095328 0.6482495474628317 0.0
C C 0.06444045641635168 0.28902664996362654 0.7012288939067967 0.0
C C 0.09326660684104383 0.7426967566988628 0.8320089000118568 0.0
H H 0.19375660684104384 0.7352667566988628 0.8132689000118568 0.0
C C 0.18013448772573729 0.3463161534107425 0.7048936299010905 0.0
C C -0.03620553921542074 0.33753792587177867 0.718242226420412 0.0
C C 0.340338333061266 0.5113525812521948 0.8461479038646761 0.0
H H 0.39585833306126594 0.5471225812521949 0.8359179038646761 0.0
C C 0.2508934789823041 0.4606325836441489 0.7992488627377775 0.0
H H 0.27920347898230413 0.46910258364414886 0.7521088627377776 0.0
C C 0.12990075770759923 0.4066422834098825 0.8324759362141999 0.0
C C 0.14388097949831538 0.4053088414009652 0.8489673174376831 0.0
H H 0.0839009794983154 0.37087884140096516 0.8608273174376833 0.0
C C 0.16417760378458487 0.4359700263897899 0.8899170019815031 0.0
H H 0.13242760378458485 0.42935002638978986 0.9369970019815032 0.0
Cd Cd -0.3276241799571074 1.0470422869412026 -0.4962381242322534 0.0
O O -0.48894903425316943 0.9732104019044303 -0.5378345294517897 0.0
O O -0.1892585713395505 1.009442047013497 -0.5721133622791537 0.0
O O -0.8964438977699977 1.2791355223214114 -0.7092363093614884 0.0
O O -0.42877704812157075 1.2689083447992247 -0.7727718923014555 0.0
N N -0.49943434643368356 1.1168485364250227 -0.5685649368040652 0.0
N N -0.6876516456101524 1.2633629556259247 -0.6872418685765576 0.0
C C -0.2921035444970308 0.978193702034243 -0.563193999019161 0.0
C C -0.23243963593354808 0.9268135826716025 -0.6616777567317269 0.0
C C -0.12478520925054744 0.9385685935148392 -0.6553784207086185 0.0
H H -0.04987520925054744 0.9694285935148395 -0.6427384207086185 0.0
C C -0.08734457718912349 0.9189725238888338 -0.724952614049738 0.0
H H 0.011565422810876537 0.9195325238888338 -0.746612614049738 0.0
C C -0.14871520996806034 0.8423676174627354 -0.7257001565565044 0.0
C C -0.3617096036138398 0.8164607976119455 -0.6997335335592799 0.0
C C -0.40583335332189296 0.8979875220896716 -0.6869142664782086 0.0
H H -0.503443353321893 0.8959575220896716 -0.6643842664782086 0.0
C C -0.6080953394665982 1.306516458028226 -0.770393626957375 0.0
C C -0.7855837531178856 1.2984463580280399 -0.7006348298530991 0.0
C C -0.5441104835147366 1.15214234435847 -0.519318720775529 0.0
H H -0.5725204835147366 1.1494123443584698 -0.4711887207755291 0.0
C C -0.7035506865115233 1.1960521725840842 -0.5609970877930195 0.0
H H -0.7743606865115235 1.2244221725840843 -0.5424570877930195 0.0
C C -0.5113311580208999 1.2176229104672605 -0.7114488891682902 0.0
C C -0.5430737640442644 1.153515647762282 -0.6925267630762355 0.0
H H -0.5147637640442644 1.1536856477622823 -0.7406867630762355 0.0
C C -0.40294510733424477 1.1290415511887788 -0.6223257431471804 0.0
H H -0.3294551073342447 1.1005115511887789 -0.6386857431471805 0.0
O O -0.2789293697546057 1.1308982535115524 -0.3710230863994651 0.0
O O -0.13596972365176088 1.0946199315159866 -0.47952474399304984 0.0
O O 0.13514484743459076 0.8559671163032168 -0.269148100481155 0.0
O O -0.37885364455033843 0.8504108226207464 -0.1575377946511523 0.0
N N -0.07578507699226066 0.8690319934280859 -0.24175438725283319 0.0
N N -0.2484143460499305 1.008046940543806 -0.37592232033677436 0.0
C C -0.13205425679121163 1.1466634039623345 -0.4277540988401276 0.0
C C -0.06162335991107117 1.231677417739981 -0.38393700412291965 0.0
C C 0.012770259664476612 1.2384549377349667 -0.44231624097704353 0.0
H H 0.04698025966447659 1.2137249377349668 -0.47957624097704354 0.0
C C -0.19785471219727951 0.7938288441824675 -0.1166076462359307 0.0
H H -0.2962647121972795 0.8026988441824675 -0.09686764623593072 0.0
C C -0.17658289475632596 0.8003095130364246 -0.14487865226833185 0.0
C C 0.0459857421596494 0.7920674901686989 -0.15953217143797455 0.0
C C -0.12395540279259849 1.265488346682336 -0.34444414729906947 0.0
H H -0.22444540279259848 1.258058346682336 -0.3257041472990695 0.0
C C -0.16144981432461533 0.8716464535178028 -0.18350162261497327 0.0
C C -0.028698758082500327 0.8452169895392873 -0.2611388113553475 0.0
C C -0.2557970273853788 1.012405683099436 -0.32272024639132557 0.0
H H -0.31131702738537875 1.048175683099436 -0.31249024639132567 0.0
C C -0.26295328178221306 0.9779674274899229 -0.25323146858566054 0.0
H H -0.29126328178221306 0.9864374274899229 -0.20609146858566055 0.0
C C -0.15715151746473316 0.8996802207770347 -0.33917033657466905 0.0
C C -0.06680030228203476 0.8930279751628835 -0.37298369487251043 0.0
H H -0.006820302282034766 0.8585979751628836 -0.38484369487251047 0.0
C C -0.16633038019106233 0.9405530417268093 -0.3972231323759069 0.0
H H -0.13458038019106233 0.9339330417268092 -0.4443031323759069 0.0
Cd Cd -0.2563399303628666 -0.5456001686930327 -1.000514034473114 0.0
O O -0.4754986049855866 -0.4622076258121359 -1.0508727655933519 0.0
O O -0.15944975891297836 -0.5226054675120068 -1.089161147961936 0.0
O O -0.9061775083536151 -0.7583600987987105 -1.174640857875556 0.0
O O -0.32715138897714435 -0.7812788519846379 -1.2630519062904777 0.0
N N -0.42815175525193305 -0.6350956213323845 -1.0837842319243416 0.0
N N -0.6248040800815475 -0.7589491628558263 -1.1922812535920906 0.0
C C -0.36087346683780147 -0.47418040305508385 -1.1015115375766473 0.0
C C -0.24125022427767262 -0.4142533722054008 -1.1294241239415048 0.0
C C -0.10138947897379598 -0.4104083449030337 -1.1923440141355501 0.0
H H -0.02647947897379591 -0.44126834490303374 -1.17970401413555 0.0
C C -0.1524619317462823 -0.40031310721104474 -1.246578768709439 0.0
H H -0.05355193174628228 -0.40087310721104474 -1.268238768709439 0.0
C C -0.1602773745924723 -0.3336325364646614 -1.272171482258032 0.0
C C -0.3753671435246854 -0.3612271017914708 -1.2162188617032215 0.0
C C -0.36171960880178755 -0.36478982430322243 -1.1901889424171943 0.0
H H -0.45932960880178764 -0.36275982430322246 -1.1676589424171944 0.0
C C -0.5737918974330004 -0.7705248672256513 -1.2474745115665813 0.0
C C -0.7665122957355888 -0.7959447209195544 -1.2141103569682072 0.0
C C -0.5504823717462378 -0.6516905119905796 -1.030646500172476 0.0
H H -0.5788923717462378 -0.6489605119905798 -0.9825165001724762 0.0
C C -0.6327742578150122 -0.7312983901197171 -1.0981990295941688 0.0
H H -0.7035842578150121 -0.759668390119717 -1.0796590295941688 0.0
C C -0.6188219525327907 -0.7143941000456124 -1.1895659063661561 0.0
C C -0.46296002879350356 -0.6705994905415548 -1.1589186105319986 0.0
H H -0.43465002879350356 -0.6707694905415548 -1.2070786105319986 0.0
C C -0.4011216565476179 -0.6356240757816319 -1.116524192116566 0.0
H H -0.32763165654761783 -0.6070940757816319 -1.1328841921165662 0.0
O O -0.25648914028269326 -0.6292584622544961 -0.9562131249278882 0.0
O O -0.10033729034151144 -0.6285567961682137 -0.9579725730458867 0.0
O O 0.034353944793388595 -0.3838908347193995 -0.8295101642777495 0.0
O O -0.37962717170019833 -0.39479692125082544 -0.6648208360850023 0.0
N N -0.11026469311502743 -0.3330264183884247 -0.7397661731359152 0.0
N N -0.19187788986312956 -0.503493237795241 -0.8943467130428382 0.0
C C -0.0963538549696782 -0.6217459044183052 -0.9459310940358971 0.0
C C -0.004226549258782978 -0.6869486520725905 -0.9052542575567561 0.0
C C 0.08644102961050791 -0.7276356172875867 -0.9342605382196526 0.0
H H 0.12065102961050796 -0.7029056172875868 -0.9715205382196526 0.0
C C -0.2350653734891419 -0.264775277180811 -0.56811922306032 0.0
H H -0.3334753734891419 -0.27364527718081105 -0.54837922306032 0.0
C C -0.12004341530401445 -0.284339869772156 -0.6561246855536695 0.0
C C 0.05847314839069218 -0.2958677857650827 -0.664812789476233 0.0
C C -0.05702952120813144 -0.736655319747597 -0.8488821851708493 0.0
H H -0.15751952120813148 -0.729225319747597 -0.8301421851708494 0.0
C C -0.18037395679732163 -0.34987231019435316 -0.7220139369605146 0.0
C C 0.04945609978130463 -0.3049442939064415 -0.741399109054246 0.0
C C -0.27205774166940055 -0.5154783875147174 -0.8284221552680782 0.0
H H -0.32757774166940057 -0.5512483875147175 -0.8181921552680781 0.0
C C -0.21516403349563776 -0.47141919949454175 -0.7737064805241121 0.0
H H -0.2434740334956378 -0.47988919949454173 -0.7265664805241122 0.0
C C -0.12215206822024822 -0.3900587658646181 -0.8118963711228685 0.0
C C -0.0981411340336333 -0.4103165060105961 -0.8436668036189738 0.0
H H -0.03816113403363332 -0.3758865060105961 -0.8555268036189739 0.0
C C -0.11678231414634528 -0.46103179789405047 -0.8854662998694907 0.0
H H -0.08503231414634525 -0.4544117978940504 -0.9325462998694907 0.0
Cd Cd 0.30258639914380914 -1.0722182025210318 0.48314598086818233 0.0
O O 0.4491126811476548 -0.954897877660763 0.5394297288816847 0.0
O O 0.19367027093749992 -1.0198960795019238 0.5948088360286813 0.0
O O 0.9039106429197201 -1.2421654276541967 0.6985983115179082 0.0
O O 0.43743772492989724 -1.2629938396158376 0.783747116668735 0.0
N N 0.4322968533527921 -1.1097492046287254 0.5723861297912463 0.0
N N 0.6896438582517207 -1.261352068953803 0.7110018351671173 0.0
C C 0.2942060672792701 -0.9776516178174219 0.5613902571030498 0.0
C C 0.24899893947791377 -0.900507735048233 0.662031829476751 0.0
C C 0.1366763227671919 -0.9000826550523596 0.6832535462552773 0.0
H H 0.06176632276719191 -0.9309426550523598 0.6706135462552774 0.0
C C 0.05977004202082979 -0.8839096003812745 0.7416717072045358 0.0
H H -0.03913995797917025 -0.8844696003812745 0.7633317072045358 0.0
C C 0.19389290299112819 -0.8389594724545681 0.7712327701549283 0.0
C C 0.3520054245696972 -0.8202113430096248 0.740400000100076 0.0
C C 0.4897253849084464 -0.8807960082668278 0.6809109291934778 0.0
H H 0.5873353849084465 -0.8787660082668278 0.6583809291934779 0.0
C C 0.4835960881877415 -1.308705629119376 0.7499265040549472 0.0
C C 0.8332631594008207 -1.2959743690387417 0.7015460935267525 0.0
C C 0.5010051715477659 -1.1461839084680583 0.5885390490373392 0.0
H H 0.5294151715477661 -1.1434539084680582 0.5404090490373393 0.0
C C 0.6263387634753762 -1.1908622769384405 0.5570623398277038 0.0
H H 0.6971487634753764 -1.2192322769384405 0.5385223398277037 0.0
C C 0.6303103833328645 -1.2196807241947842 0.6511791732341398 0.0
C C 0.4636134656299646 -1.1503160000727275 0.6695076970060472 0.0
H H 0.4353034656299645 -1.1504860000727277 0.717667697006047 0.0
C C 0.4569614963385265 -1.1176691828593872 0.6369128141451893 0.0
H H 0.38347149633852645 -1.0891391828593873 0.6532728141451895 0.0
O O 0.29868193068244603 -1.1366258425648563 0.43241701748576244 0.0
O O 0.1287356344698558 -1.116963330268963 0.5003491218162309 0.0
O O -0.18512060428130872 -0.8554991882014095 0.24143796232103812 0.0
O O 0.29378424621591287 -0.8748039731380818 0.16211860059956018 0.0
N N 0.15605425291025515 -0.8724993746900267 0.2598123240305545 0.0
N N 0.17714641717285295 -0.9868399312862592 0.3870487148494483 0.0
C C 0.13559873121906718 -1.1667117120064838 0.4076860018090948 0.0
C C 0.0645263925765038 -1.2020483870119578 0.41473610841612196 0.0
C C -0.12600338966997254 -1.2223424083955718 0.42326534035082286 0.0
H H -0.16021338966997253 -1.197612408395572 0.4605253403508229 0.0
C C 0.1826958101214724 -0.7714614140384659 0.0891766611930129 0.0
H H 0.2811058101214724 -0.780331414038466 0.06943666119301292 0.0
C C 0.11535629260432713 -0.7951085670814981 0.13391583631132445 0.0
C C 0.012450464964858514 -0.7820746608559902 0.1680530635587793 0.0
C C 0.08659461044402005 -1.241125219710509 0.32694033497791375 0.0
H H 0.18708461044402003 -1.233695219710509 0.30820033497791377 0.0
C C 0.22335677623387656 -0.827411646229482 0.17245768585120758 0.0
C C -0.015590041072053307 -0.8117610854667929 0.25418849179927533 0.0
C C 0.31108708057742473 -1.0035538586912287 0.3353134916096813 0.0
H H 0.36660708057742475 -1.0393238586912288 0.3250834916096814 0.0
C C 0.25824896939015846 -0.9354437055444135 0.3079878619729157 0.0
H H 0.2865589693901585 -0.9439137055444135 0.26084786197291576 0.0
C C 0.11775381365407304 -0.9151026929306159 0.2831385142724928 0.0
C C 0.09862500836916901 -0.901316281132056 0.38277772425086426 0.0
H H 0.03864500836916902 -0.866886281132056 0.3946377242508643 0.0
C C 0.16825979755499215 -0.9371200004992012 0.42588237831237596 0.0
H H 0.13650979755499212 -0.9305000004992011 0.4729623783123759 0.0
_cell_length_a 8.39304
_cell_length_b 22.23511
_cell_length_c 18.74218
_cell_angle_alpha 90.0
_cell_angle_beta 94.0312
_cell_angle_gamma 90.0
_symmetry_space_group_name_H-M         'P 1'
_symmetry_Int_Tables_number            1
loop_
_symmetry_equiv_pos_as_xyz
   'x, y, z'
                         
loop_
_atom_site_label
_atom_site_type_symbol
_atom_site_fract_x 
_atom_site_fract_y
_atom_site_fract_z
_atom_site_charge
Cd Cd 0.2820901478350919 0.5543571384120942 0.9742609698424263 0.0
O O 0.43101664660172617 0.4787227674346528 1.043670934133955 0.0
O O 0.19637365876279497 0.4968446476840578 1.09919380260225 0.0
O O 0.9538774138530424 0.7795097208078381 1.1342866478419633 0.0
O O 0.4703533824599354 0.7974027546649406 1.236040425498793 0.0
N N 0.4359718741156505 0.6336145298083563 1.0935224267828363 0.0
N N 0.6287173885751793 0.7660179642268287 1.1809186651384094 0.0
C C 0.28907833818688944 0.4402005122409313 1.0792576307314092 0.0
C C 0.2708246218193109 0.404407527892933 1.1627904500248527 0.0
C C 0.09874225811864869 0.45560187580884987 1.2006001577020746 0.0
H H 0.023832258118648614 0.48646187580884986 1.1879601577020744 0.0
C C 0.0911568247260633 0.37206005947585963 1.216748188026077 0.0
H H -0.007753175273936724 0.37262005947585963 1.238408188026077 0.0
C C 0.22358126648225526 0.3442720839239045 1.2460988796309582 0.0
C C 0.3916841600333909 0.3152528860620014 1.2359683209986299 0.0
C C 0.37452568812735965 0.36194622694185197 1.169461844897482 0.0
H H 0.47213568812735973 0.359916226941852 1.1469318448974821 0.0
C C 0.5901855709596265 0.7643254029185315 1.232641780114365 0.0
C C 0.7696928850042608 0.7879000130261726 1.2188296546287696 0.0
C C 0.5679904795455223 0.6799820548219184 1.042578152237518 0.0
H H 0.5964004795455223 0.6772520548219185 0.9944481522375181 0.0
C C 0.6583491747709668 0.7076697049078299 1.054336123136838 0.0
H H 0.7291591747709669 0.7360397049078297 1.035796123136838 0.0
C C 0.6295674582280708 0.6832015920527803 1.1576426696723452 0.0
C C 0.4878975052820465 0.6709594981347093 1.1661813658861617 0.0
H H 0.45958750528204656 0.6711294981347093 1.214341365886162 0.0
C C 0.3521454339563618 0.5959326675336829 1.1251968448656977 0.0
H H 0.2786554339563617 0.567402667533683 1.1415568448656979 0.0
O O 0.2772800398427017 0.6248822429072931 0.8982084250690612 0.0
O O 0.09137751927213779 0.6189164712221485 0.9823837304534252 0.0
O O -0.14532019078659567 0.35134317097316164 0.7827132466275124 0.0
O O 0.3746516801778501 0.3340650375844689 0.6978838626309073 0.0
N N 0.051235604170925396 0.3453667892504807 0.7329578762296688 0.0
N N 0.2162081011834388 0.469976805367829 0.9098818196998636 0.0
C C 0.13586164362487121 0.6546203338074283 0.8877015392528939 0.0
C C 0.0687151341439663 0.7197683911273339 0.9098265690614521 0.0
C C -0.10869993715736247 0.6848493595322542 0.9603002138521061 0.0
H H -0.14290993715736253 0.6601193595322543 0.997560213852106 0.0
C C 0.19875653953009245 0.26445665961659226 0.5892926853522494 0.0
H H 0.2971665395300925 0.27332665961659225 0.5695526853522495 0.0
C C 0.12816270087673023 0.2911648768083804 0.6277680028388097 0.0
C C -0.023321622652216444 0.2627373646670992 0.6671288647178722 0.0
C C 0.13803403619052587 0.7232711150974874 0.8585096091825949 0.0
H H 0.2385240361905259 0.7158411150974874 0.8397696091825948 0.0
C C 0.17391933281558566 0.3569656755027852 0.6775999187876295 0.0
C C -0.0427181678935893 0.31747285045661244 0.6940512522613388 0.0
C C 0.2907610560361241 0.4995361686004044 0.8417356450822345 0.0
H H 0.3462810560361241 0.5353061686004046 0.8315056450822346 0.0
C C 0.21905073168820574 0.47698560992916406 0.7516297369798279 0.0
H H 0.24736073168820577 0.48545560992916403 0.704489736979828 0.0
C C 0.18225261635280432 0.4227079011156902 0.8129144687711767 0.0
C C 0.055437255038630506 0.3952744406349863 0.8677713926929296 0.0
H H -0.004542744961369491 0.3608444406349863 0.8796313926929297 0.0
C C 0.1337991512663433 0.45530370405944126 0.919809422632527 0.0
H H 0.10204915126634331 0.44868370405944125 0.9668894226325271 0.0
Cd Cd -0.35185894420484914 1.0512458097863426 -0.5057918723208005 0.0
O O -0.4409627295464866 0.9525587007494944 -0.5604635389542758 0.0
O O -0.19600348064074788 1.0109829861710817 -0.5636461194431578 0.0
O O -0.902300281391121 1.2541947055338343 -0.6688045620799112 0.0
O O -0.40480332500163085 1.278615165320713 -0.7550286836137308 0.0
N N -0.41499215541093665 1.1281987921713812 -0.5585793974291099 0.0
N N -0.6062412913435933 1.2462385209974178 -0.7017932102433905 0.0
C C -0.32880282812175193 0.9495096303716901 -0.6082859351184903 0.0
C C -0.2582370764010214 0.9293187060018671 -0.6579597749534961 0.0
C C -0.1426772274080949 0.945368171449021 -0.6697292130455397 0.0
H H -0.06776722740809492 0.9762281714490212 -0.6570892130455397 0.0
C C -0.12696043198324058 0.9014998512263809 -0.6782546188430036 0.0
H H -0.02805043198324058 0.9020598512263809 -0.6999146188430035 0.0
C C -0.18786840802592555 0.8346006664887777 -0.7423780368879116 0.0
C C -0.3324070865184258 0.837777587027333 -0.7065645801554604 0.0
C C -0.38580457557633924 0.8587394276507674 -0.6640466333380408 0.0
H H -0.4834145755763393 0.8567094276507674 -0.6415166333380408 0.0
C C -0.58199997160531 1.293579469378854 -0.7466628040457217 0.0
C C -0.7338737622812654 1.2850053065837226 -0.6840173399505945 0.0
C C -0.5373128575878529 1.1519457374896158 -0.5418934026607577 0.0
H H -0.565722857587853 1.1492157374896157 -0.4937634026607578 0.0
C C -0.6174910002403806 1.1834098020238464 -0.5902533896178316 0.0
H H -0.6883010002403807 1.2117798020238464 -0.5717133896178316 0.0
C C -0.5954950607747461 1.2059474187383885 -0.6306514915774679 0.0
C C -0.4683550992895809 1.183904093848333 -0.6666235848883476 0.0
H H -0.4400450992895808 1.184074093848333 -0.7147835848883475 0.0
C C -0.42446439476779746 1.1379358558345785 -0.6698738064693401 0.0
H H -0.3509743947677974 1.1094058558345783 -0.6862338064693403 0.0
O O -0.24836228508862437 1.145062713151326 -0.4265586739751708 0.0
O O -0.07020983497344256 1.1226501805030717 -0.48866900037198363 0.0
O O 0.13621244070527133 0.825053471226599 -0.27906960161875805 0.0
O O -0.35399211844886436 0.8952293482812237 -0.18966526906019338 0.0
N N -0.06587039038984593 0.8545810800049788 -0.2290324254173556 0.0
N N -0.23699285996952693 0.996649092198428 -0.3884975038397792 0.0
C C -0.13430483287761505 1.1596216704239242 -0.44684268748561695 0.0
C C -0.04121734521989824 1.2202468205719028 -0.3989728120369445 0.0
C C 0.1569306562351198 1.2364741625973694 -0.4566930149516454 0.0
H H 0.19114065623511972 1.2117441625973695 -0.4939530149516454 0.0
C C -0.17536527948825145 0.7610532887818875 -0.09658817502140869 0.0
H H -0.27377527948825153 0.7699232887818875 -0.07684817502140871 0.0
C C -0.10908592524953746 0.7871618665147243 -0.13797969563114215 0.0
C C -0.04328771672536305 0.8055398551004084 -0.19011935280027273 0.0
C C -0.1202883010456709 1.251379855877296 -0.3644980121974551 0.0
H H -0.22077830104567087 1.2439498558772961 -0.3457580121974551 0.0
C C -0.23424789759295944 0.853166235624792 -0.1777668580847498 0.0
C C -0.0056388991682760695 0.845112693701343 -0.23365073521778437 0.0
C C -0.23781290808420544 1.0061875761127166 -0.35391030279774843 0.0
H H -0.2933329080842055 1.0419575761127167 -0.3436803027977485 0.0
C C -0.24478052821395346 0.9376696864797223 -0.2869379938147684 0.0
H H -0.2730905282139535 0.9461396864797222 -0.23979799381476846 0.0
C C -0.14924097796726873 0.9155020170569269 -0.26246664325800284 0.0
C C -0.0653453763611381 0.8916764368915011 -0.3653331991695569 0.0
H H -0.005365376361138104 0.8572464368915012 -0.37719319916955696 0.0
C C -0.12486734338260015 0.9428630904115345 -0.4194596774961567 0.0
H H -0.09311734338260014 0.9362430904115344 -0.4665396774961566 0.0
Cd Cd -0.3144421232602071 -0.5489345402884117 -0.9881249186872159 0.0
O O -0.4124341549318006 -0.4865473576814747 -1.0418966035216761 0.0
O O -0.17362375083219672 -0.5098207473443221 -1.1040856056283448 0.0
O O -0.9365373465595009 -0.7788186926173761 -1.1691055757774638 0.0
O O -0.4129623655971436 -0.7699956499331512 -1.243254069618425 0.0
N N -0.4565359524197123 -0.611370154811565 -1.0528966945513365 0.0
N N -0.6648044058364535 -0.7366022188514885 -1.172716203829335 0.0
C C -0.27649023807546985 -0.45896584783487243 -1.0893680211093808 0.0
C C -0.2982718404404306 -0.4086066675378981 -1.1333527386731566 0.0
C C -0.04738059166316632 -0.40194439470144266 -1.1754709511406762 0.0
H H 0.027529408336833726 -0.43280439470144266 -1.1628309511406762 0.0
C C -0.11387152966106275 -0.36049149731567437 -1.230004684686385 0.0
H H -0.014961529661062725 -0.3610514973156744 -1.251664684686385 0.0
C C -0.24375488856082556 -0.3234548724507171 -1.2653506891269168 0.0
C C -0.3060652684079366 -0.32532093795028133 -1.2215757882925367 0.0
C C -0.39735015034406235 -0.36364526992397045 -1.1592448603280125 0.0
H H -0.4949601503440625 -0.3616152699239705 -1.1367148603280124 0.0
C C -0.5959562497209526 -0.8044329221664467 -1.237877305828895 0.0
C C -0.8608085159744333 -0.7652206714799309 -1.2152169921691671 0.0
C C -0.5179723021225109 -0.6589500952896757 -1.0422206812269947 0.0
H H -0.5463823021225109 -0.656220095289676 -0.9940906812269948 0.0
C C -0.6187769999001289 -0.6978665365398948 -1.099581127414322 0.0
H H -0.689586999900129 -0.7262365365398946 -1.0810411274143221 0.0
C C -0.5617316824128618 -0.723373853246046 -1.1674694038323954 0.0
C C -0.4277244529051995 -0.6729066657016437 -1.200034953640452 0.0
H H -0.3994144529051995 -0.6730766657016436 -1.2481949536404522 0.0
C C -0.3907804993047912 -0.6248205183521944 -1.135293271548541 0.0
H H -0.31729049930479125 -0.5962905183521944 -1.1516532715485412 0.0
O O -0.28004531180462977 -0.632934841250869 -0.9158894425738203 0.0
O O -0.07505392314178634 -0.6017903161899592 -0.9915340696562678 0.0
O O 0.146450089550467 -0.3177744600559456 -0.7687536178304751 0.0
O O -0.35584742326517693 -0.3757271936038391 -0.6972316426121009 0.0
N N -0.16513616571489106 -0.37334374011569055 -0.7383323583675376 0.0
N N -0.22976197044335137 -0.48618017485128323 -0.8858050857614033 0.0
C C -0.10456011436522028 -0.6781165664138622 -0.9360811026005644 0.0
C C -0.0521120904778836 -0.7083397271993349 -0.9300656799971133 0.0
C C 0.09598405553980607 -0.7159981103396025 -0.9477020032881728 0.0
H H 0.13019405553980612 -0.6912681103396026 -0.9849620032881726 0.0
C C -0.17247677612940612 -0.2681483044727792 -0.5981845117261443 0.0
H H -0.2708867761294061 -0.2770183044727792 -0.5784445117261443 0.0
C C -0.13317801814914404 -0.2871850425568007 -0.6458614660008151 0.0
C C -0.06020280624930238 -0.29630582559414664 -0.6617147575141813 0.0
C C -0.10720740530718849 -0.7489478491850818 -0.8427027228265741 0.0
H H -0.20769740530718853 -0.7415178491850818 -0.8239627228265741 0.0
C C -0.13902480593875088 -0.3532675592889596 -0.6946398140136884 0.0
C C 0.0777679256219696 -0.3329969141704629 -0.7189226884342628 0.0
C C -0.22361263461800235 -0.506847270384971 -0.8433828356389969 0.0
H H -0.2791326346180023 -0.5426172703849711 -0.8331528356389969 0.0
C C -0.2616729018162242 -0.45979889507394917 -0.7822878563664455 0.0
H H -0.2899829018162242 -0.46826889507394914 -0.7351478563664455 0.0
C C -0.0963848675096238 -0.4307864994959399 -0.7853042497689733 0.0
C C -0.0902904323142051 -0.41727361518362255 -0.8854529067482033 0.0
H H -0.030310432314205122 -0.38284361518362253 -0.8973129067482034 0.0
C C -0.21235994081086393 -0.44413696173432243 -0.914840606692063 0.0
H H -0.1806099408108639 -0.4375169617343224 -0.961920606692063 0.0
Cd Cd 0.35554756493844825 -1.0658619967545209 0.48207912674121023 0.0
O O 0.40950019940337606 -0.9369456245772775 0.5415062609658957 0.0
O O 0.2038825045851232 -1.018345287956749 0.589865736564848 0.0
O O 0.8636175742122315 -1.2642563457083218 0.6463128065115546 0.0
O O 0.5616476069833167 -1.2981085542651787 0.8056544631137823 0.0
N N 0.5076420170661762 -1.1309539991431945 0.5759473947507191 0.0
N N 0.6258555297660946 -1.2459693975205364 0.7033262369043065 0.0
C C 0.3213832787950768 -0.9627746336710156 0.5832436096800012 0.0
C C 0.2912430606348621 -0.8984887672857098 0.6624786146055086 0.0
C C 0.140392783371736 -0.9181811495236228 0.6686413051216512 0.0
H H 0.065482783371736 -0.9490411495236231 0.6560013051216512 0.0
C C 0.01080439602638771 -0.891220729912468 0.7451699391207116 0.0
H H -0.08810560397361232 -0.891780729912468 0.7668299391207116 0.0
C C 0.17831411090875418 -0.8331947496611871 0.7410892539609542 0.0
C C 0.3714912184728539 -0.8320500282051468 0.7203458241801519 0.0
C C 0.4004713711088929 -0.8678843742115436 0.6598667173148384 0.0
H H 0.49808137110889295 -0.8658543742115437 0.6373367173148383 0.0
C C 0.5176538057683382 -1.2756059338285077 0.7469670345924655 0.0
C C 0.774284868078148 -1.2806300383876137 0.7106419777533536 0.0
C C 0.5194409143381583 -1.1250841531174838 0.5561345419285634 0.0
H H 0.5478509143381585 -1.1223541531174837 0.5080045419285635 0.0
C C 0.6721490876292442 -1.2243201422608232 0.596572160446711 0.0
H H 0.7429590876292443 -1.2526901422608234 0.5780321604467109 0.0
C C 0.5804381031575444 -1.2175288934963595 0.6686326079481997 0.0
C C 0.5049440257775069 -1.1749990146541331 0.7073115948560794 0.0
H H 0.47663402577750674 -1.1751690146541331 0.7554715948560794 0.0
C C 0.41611707596157194 -1.145904707991011 0.6463980742497041 0.0
H H 0.34262707596157194 -1.117374707991011 0.6627580742497042 0.0
O O 0.2615569780479619 -1.1255712707961842 0.41082866535224033 0.0
O O 0.055878744959784364 -1.1299326135179875 0.492452492586978 0.0
O O -0.14515405839124132 -0.841465731654117 0.2937068074636458 0.0
O O 0.31377710751736176 -0.8649328790470001 0.18413420419118423 0.0
N N 0.08371275749106992 -0.8627401936911511 0.22262939627947553 0.0
N N 0.21268914747945453 -0.9944108505138596 0.38615033743917965 0.0
C C 0.17732430807438726 -1.151309426397728 0.45755153979483276 0.0
C C 0.0862410426420392 -1.2098720600534572 0.4065390975337731 0.0
C C -0.03983608952386221 -1.2311025360824166 0.44971491896012705 0.0
H H -0.0740460895238622 -1.2063725360824167 0.486974918960127 0.0
C C 0.210267413411183 -0.7745159608856403 0.07835945847870358 0.0
H H 0.30867741341118293 -0.7833859608856404 0.05861945847870361 0.0
C C 0.14992900328525388 -0.8182729485272874 0.14812952945184954 0.0
C C 0.021117701960908907 -0.7775198638180224 0.18139580551719 0.0
C C 0.06318648957551241 -1.2393305615604446 0.3235967542579091 0.0
H H 0.1636764895755124 -1.2319005615604446 0.30485675425790915 0.0
C C 0.1660090544437165 -0.8391415112066056 0.1662635445038837 0.0
C C 0.03327403655580148 -0.849782997906954 0.2099296285938094 0.0
C C 0.2632220699960015 -1.0062756524639813 0.328327801869166 0.0
H H 0.3187420699960015 -1.0420456524639814 0.3180978018691661 0.0
C C 0.26389869681838385 -0.9546337071353798 0.2768610881005603 0.0
H H 0.29220869681838385 -0.9631037071353797 0.22972108810056033 0.0
C C 0.1390492300482721 -0.9139016881633654 0.2693256196812527 0.0
C C 0.10908274671927361 -0.8785931496184326 0.3698463154072585 0.0
H H 0.04910274671927361 -0.8441631496184326 0.3817063154072585 0.0
C C 0.11866496896266042 -0.9424961739470371 0.42429043858672294 0.0
H H 0.08691496896266042 -0.935876173947037 0.47137043858672295 0.0
