_cell_length_a 8.39304
_cell_length_b 22.23511
_cell_length_c 18.74218
_cell_angle_alpha 90.0
_cell_angle_beta 94.0312
_cell_angle_gamma 90.0
_symmetry_space_group_name_H-M         'P 1'
_symmetry_Int_Tables_number            1
loop_
_symmetry_equiv_pos_as_xyz
   'x, y, z'
                         
loop_
_atom_site_label
_atom_site_type_symbol
_atom_site_fract_x 
_atom_site_fract_y
_atom_site_fract_z
_atom_site_charge
Cd Cd 0.30862617606154186 0.552949456613969 0.9773738357550869 0.0
O O 0.4375381920364587 0.4520024095166173 1.0473271547011833 0.0
O O 0.18579057123308337 0.4989208581502802 1.0419950763456227 0.0
O O 0.9352625116865472 0.7830349082931222 1.0959398085744265 0.0
O O 0.40197643419254875 0.7935224496292523 1.24509009300595 0.0
N N 0.497028403213952 0.6050298365528796 1.0645824071214833 0.0
N N 0.6187852492364019 0.7654476794855389 1.212612121133476 0.0
C C 0.3064361813176567 0.46706419514916014 1.0943467319085944 0.0
C C 0.2522365662050484 0.40311910042170224 1.1323710088242633 0.0
C C 0.12802180550774334 0.40113047898004744 1.1824276732341412 0.0
H H 0.05311180550774327 0.43199047898004744 1.169787673234141 0.0
C C 0.16211835799281824 0.4003456157831359 1.2614532692876161 0.0
H H 0.06320835799281822 0.4009056157831359 1.2831132692876162 0.0
C C 0.17023919664005227 0.33514440463487344 1.2541373013844708 0.0
C C 0.3282923500571486 0.3280101428889497 1.2213462979887533 0.0
C C 0.3639512304479299 0.36449769943343063 1.165683122819353 0.0
H H 0.46156123044792996 0.36246769943343066 1.1431531228193528 0.0
C C 0.5212063860539096 0.7856357946793243 1.265338755004812 0.0
C C 0.7854110536036013 0.7752018711796781 1.2107030689243743 0.0
C C 0.5453599092178841 0.6407052063283329 1.0579776995637522 0.0
H H 0.5737699092178842 0.6379752063283329 1.0098476995637522 0.0
C C 0.6369975904798924 0.7202024953012186 1.0960448449433444 0.0
H H 0.7078075904798924 0.7485724953012185 1.0775048449433444 0.0
C C 0.6153671231779572 0.7215224223886073 1.1425917189249661 0.0
C C 0.416386414555228 0.640129873717702 1.1640814012250946 0.0
H H 0.38807641455522807 0.640299873717702 1.2122414012250948 0.0
C C 0.41013672773688864 0.614556300977558 1.1491248159677407 0.0
H H 0.3366467277368887 0.586026300977558 1.165484815967741 0.0
O O 0.2940730466749672 0.6248992345748992 0.8863566265308549 0.0
O O 0.1268622770049038 0.6208533677124874 1.0158382265481731 0.0
O O -0.24169497878209478 0.35400464433965945 0.7391232270033098 0.0
O O 0.3359020463454319 0.37026968248628295 0.677708180393052 0.0
N N 0.0581949906253237 0.37440812061392725 0.7083277457832224 0.0
N N 0.1986733118522364 0.5028601241461819 0.8709833087489497 0.0
C C 0.14155592005596135 0.6535854716651985 0.9371733198975868 0.0
C C 0.05009191469293212 0.7117872838463125 0.8874316095694033 0.0
C C -0.10771710797912921 0.6987402593260992 0.9462659326115143 0.0
H H -0.14192710797912927 0.6740102593260993 0.9835259326115141 0.0
C C 0.2599783097840879 0.2938907960929521 0.5721530998899133 0.0
H H 0.358388309784088 0.30276079609295203 0.5524130998899132 0.0
C C 0.08539041302331261 0.3041819973948881 0.6570178784734785 0.0
C C 0.02054299035068554 0.27980810500756165 0.6880216601386593 0.0
C C 0.12398616799205112 0.7521299370341461 0.837770401020577 0.0
H H 0.22447616799205117 0.7446999370341462 0.819030401020577 0.0
C C 0.21190405782002122 0.3587788197438873 0.7011890827242984 0.0
C C -0.0718725129179194 0.3356991136325648 0.7417920586358072 0.0
C C 0.29755507496856065 0.47804536035685646 0.8516368568130988 0.0
H H 0.3530750749685606 0.5138153603568566 0.8414068568130987 0.0
C C 0.2263979065515084 0.44851057952703005 0.7774517895371909 0.0
H H 0.2547079065515084 0.45698057952703003 0.7303117895371909 0.0
C C 0.17698327612364337 0.4144054000392662 0.7962613621622182 0.0
C C 0.11080824965457317 0.41553363568246293 0.8842178048999103 0.0
H H 0.05082824965457318 0.38110363568246286 0.8960778048999104 0.0
C C 0.13357655180952457 0.4315532914139329 0.913252339541966 0.0
H H 0.10182655180952456 0.4249332914139329 0.9603323395419661 0.0
Cd Cd -0.2966131801261273 1.064779364203869 -0.45803829798640533 0.0
O O -0.4315633569544556 0.9464758958504417 -0.5512723797771092 0.0
O O -0.22295209437378025 0.9980960517167345 -0.5762718090917957 0.0
O O -0.7907389011916627 1.2463253090318318 -0.6476474890837992 0.0
O O -0.342419481254384 1.24148836601429 -0.7927526049037958 0.0
N N -0.445739812589351 1.1229673403601301 -0.5602014084065345 0.0
N N -0.6471908953731217 1.251399349367054 -0.7195079824272768 0.0
C C -0.2767948074726839 0.9654155670105924 -0.5751159185675895 0.0
C C -0.32303168885490696 0.9118985732014531 -0.6434618104337403 0.0
C C -0.11393013343211356 0.9180193873265464 -0.6777258143461428 0.0
H H -0.03902013343211356 0.9488793873265465 -0.6650858143461428 0.0
C C -0.035049527250746185 0.8699247844884418 -0.7580195300643767 0.0
H H 0.06386047274925384 0.8704847844884418 -0.7796795300643767 0.0
C C -0.23418359545690856 0.8490769401882673 -0.74242454669058 0.0
C C -0.33885257751565023 0.8318739752576932 -0.70719013412838 0.0
C C -0.3649012690961694 0.8692616644598844 -0.6773220540469735 0.0
H H -0.46251126909616946 0.8672316644598844 -0.6547920540469736 0.0
C C -0.5645914920196499 1.2997597307287376 -0.7515483125553587 0.0
C C -0.8450128749038714 1.2715180906248709 -0.6891988053276316 0.0
C C -0.5125628624987654 1.1780363648626349 -0.553991139310183 0.0
H H -0.5409728624987654 1.1753063648626347 -0.5058611393101831 0.0
C C -0.5795734613342021 1.2091047103813104 -0.602215639543663 0.0
H H -0.6503834613342021 1.2374747103813104 -0.583675639543663 0.0
C C -0.606030747392433 1.2108222497939718 -0.6811790300154236 0.0
C C -0.5214113799520781 1.1778271905585604 -0.6845476232556235 0.0
H H -0.49310137995207803 1.1779971905585607 -0.7327076232556234 0.0
C C -0.44412901587227394 1.1253011612813153 -0.626873903331688 0.0
H H -0.37063901587227394 1.0967711612813154 -0.6432339033316883 0.0
O O -0.2717581885631114 1.118208961745132 -0.4049269625512703 0.0
O O -0.07975264365937973 1.121193814104354 -0.46869311330696195 0.0
O O 0.21961997112245776 0.8772173132266778 -0.24863534178530114 0.0
O O -0.3588192486803785 0.8847440051340417 -0.19842593776430523 0.0
N N -0.08703825615128012 0.8642823025343371 -0.22618491394774806 0.0
N N -0.22630857182119818 0.9979975528251386 -0.3988673100202337 0.0
C C -0.07359268904641175 1.1628192631569922 -0.4566796988799054 0.0
C C -0.04473079840778891 1.2086763416382356 -0.4352415659919361 0.0
C C 0.09056975160693233 1.2145842183685673 -0.4409390828766592 0.0
H H 0.12477975160693229 1.1898542183685674 -0.47819908287665924 0.0
C C -0.2745809840180527 0.7635273230048528 -0.07980876624044073 0.0
H H -0.3729909840180527 0.7723973230048529 -0.06006876624044075 0.0
C C -0.18366568926844787 0.8051763587356646 -0.14997977813462257 0.0
C C 0.0281840659631939 0.7803616759449793 -0.16661879674036814 0.0
C C -0.18929187885708265 1.2634623620224317 -0.36819961998242823 0.0
H H -0.2897818788570826 1.2560323620224318 -0.3494596199824283 0.0
C C -0.2100925505127266 0.849112125672514 -0.1618348006082434 0.0
C C -0.05562938127151317 0.8464715704956147 -0.22112152519533246 0.0
C C -0.25657295568812993 1.0023684975717186 -0.3230855164797566 0.0
H H -0.3120929556881299 1.0381384975717187 -0.3128555164797566 0.0
C C -0.22768864143413078 0.9589924360298957 -0.2559221116881622 0.0
H H -0.2559986414341308 0.9674624360298957 -0.20878211168816221 0.0
C C -0.14804222015832147 0.9034901964327389 -0.3174708051652548 0.0
C C -0.08457365003285122 0.8947721106629627 -0.3697837965113361 0.0
H H -0.024593650032851223 0.8603421106629628 -0.3816437965113361 0.0
C C -0.19689938924262892 0.9532097289007289 -0.412866567061057 0.0
H H -0.1651493892426289 0.9465897289007289 -0.4599465670610569 0.0
Cd Cd -0.3371959939944509 -0.5500454445554466 -0.9932316991250046 0.0
O O -0.4249641255988172 -0.4572878744499284 -1.0274208115422068 0.0
O O -0.16212560361426295 -0.4908944888173212 -1.0926536828308366 0.0
O O -0.9439145177078957 -0.7206583053485262 -1.1687114855255831 0.0
O O -0.3464689522385243 -0.7799217355315493 -1.2492239876291362 0.0
N N -0.46992010176707794 -0.6358526115261866 -1.0584414861728533 0.0
N N -0.6569911514128122 -0.7571505314922633 -1.2033333488068723 0.0
C C -0.282093543535276 -0.46710069369435947 -1.0663776976308181 0.0
C C -0.2710152765283857 -0.3959011838320897 -1.1383444898229695 0.0
C C -0.022696824531529724 -0.4357119723042619 -1.1628864017034053 0.0
H H 0.0522131754684703 -0.46657197230426195 -1.1502464017034053 0.0
C C -0.11428566768063507 -0.3727819561464471 -1.239223162356801 0.0
H H -0.015375667680635016 -0.3733419561464471 -1.260883162356801 0.0
C C -0.25380207953369244 -0.33613269899660897 -1.226724187807052 0.0
C C -0.38673931786001053 -0.32947872891134944 -1.209478819339948 0.0
C C -0.3592894800673841 -0.3700437944953746 -1.1897732381139607 0.0
H H -0.4568994800673841 -0.36801379449537464 -1.1672432381139608 0.0
C C -0.5239969805923193 -0.786505182382718 -1.218876157953866 0.0
C C -0.7680995918178969 -0.7778849707764958 -1.191096668886002 0.0
C C -0.5208881364149592 -0.6566747658031662 -1.031661377990769 0.0
H H -0.5492981364149592 -0.6539447658031663 -0.9835313779907693 0.0
C C -0.5508185225324334 -0.7142642065668723 -1.0881770078134723 0.0
H H -0.6216285225324334 -0.7426342065668722 -1.0696370078134723 0.0
C C -0.5483418209700462 -0.7111412451377304 -1.1603833169301991 0.0
C C -0.4978969072394111 -0.6901718803310275 -1.180413405624582 0.0
H H -0.46958690723941116 -0.6903418803310275 -1.228573405624582 0.0
C C -0.35559456250353294 -0.6298864716664273 -1.1145806651499912 0.0
H H -0.2821045625035329 -0.6013564716664274 -1.1309406651499911 0.0
O O -0.2683153385979198 -0.6326947248492814 -0.9103587001855601 0.0
O O -0.10603647872372937 -0.6384873323542374 -0.9997706355718204 0.0
O O 0.17415948953300883 -0.346720077788681 -0.7507998381088848 0.0
O O -0.37185938194994084 -0.349866555662442 -0.67602576933695 0.0
N N -0.08888212839980118 -0.3650657535899208 -0.7640151716355147 0.0
N N -0.2370676173470708 -0.49272413742537996 -0.9011363365625056 0.0
C C -0.13147426604809984 -0.6533062117953965 -0.9223610577375968 0.0
C C -0.03233528237055609 -0.6844898523014026 -0.913713894355621 0.0
C C 0.13238497726120468 -0.7128143630002954 -0.9493900644342784 0.0
H H 0.1665949772612047 -0.6880843630002955 -0.9866500644342783 0.0
C C -0.23103080060336498 -0.2810927857579628 -0.6097772320209386 0.0
H H -0.32944080060336495 -0.2899627857579628 -0.5900372320209386 0.0
C C -0.11281370955133936 -0.31280623963626814 -0.6375229192847162 0.0
C C -0.030230002991740598 -0.2847990517481652 -0.6681776370499298 0.0
C C -0.15650150042507605 -0.7340896023332288 -0.8338097388377317 0.0
H H -0.25699150042507607 -0.7266596023332289 -0.8150697388377317 0.0
C C -0.25095880506808466 -0.3263499272435434 -0.6742109832504005 0.0
C C -0.014601231636574697 -0.3198009315525197 -0.7578761198732419 0.0
C C -0.22878305196931736 -0.5004569045809355 -0.8432782141968628 0.0
H H -0.2843030519693174 -0.5362269045809356 -0.8330482141968628 0.0
C C -0.2873442256949005 -0.47694097346692843 -0.7498735914645099 0.0
H H -0.3156542256949004 -0.4854109734669284 -0.7027335914645101 0.0
C C -0.148124758257166 -0.3956541204025467 -0.7751163682340789 0.0
C C -0.05900590508117904 -0.37965169356509215 -0.8650575391128617 0.0
H H 0.0009740949188209401 -0.3452216935650922 -0.8769175391128617 0.0
C C -0.12300380537486115 -0.4462311794171372 -0.9068721988632441 0.0
H H -0.09125380537486112 -0.4396111794171371 -0.9539521988632441 0.0
Cd Cd 0.29865280733107846 -1.0692806704290574 0.482787844748951 0.0
O O 0.39727070971626255 -0.9660349663587362 0.5572436670471019 0.0
O O 0.1939255573275551 -1.0037241848195768 0.5610280596759694 0.0
O O 0.9084270733723572 -1.2395340596673838 0.6757725781945911 0.0
O O 0.3701752753200185 -1.2698498943936463 0.7961545609889962 0.0
N N 0.45652660314779425 -1.121970506315006 0.5505030868289726 0.0
N N 0.6442043561015598 -1.2529257221777852 0.733171457762236 0.0
C C 0.275285673586801 -0.9381681161758262 0.5823906464281674 0.0
C C 0.33192747394369543 -0.909844595342582 0.6640423359464179 0.0
C C 0.1551092045085931 -0.9028414208366938 0.6494259788869664 0.0
H H 0.08019920450859311 -0.933701420836694 0.6367859788869664 0.0
C C 0.037486175486466426 -0.8540680211528102 0.734078377642962 0.0
H H -0.06142382451353358 -0.8546280211528102 0.755738377642962 0.0
C C 0.2393214122807555 -0.8357796857582566 0.7320915269745343 0.0
C C 0.3869092031841944 -0.8420018433702847 0.715881289214668 0.0
C C 0.3552748498390787 -0.8775588038124326 0.6786742671642467 0.0
H H 0.45288484983907884 -0.8755288038124326 0.6561442671642468 0.0
C C 0.5391682756419474 -1.2651467589060428 0.7438297270183362 0.0
C C 0.7801546945604294 -1.2948039421497173 0.690351786342955 0.0
C C 0.5922081371663367 -1.1594370472499351 0.5226353415666336 0.0
H H 0.6206181371663367 -1.156707047249935 0.4745053415666337 0.0
C C 0.6494212051227227 -1.2104154514175511 0.5883966853550653 0.0
H H 0.7202312051227229 -1.2387854514175511 0.5698566853550652 0.0
C C 0.5970507244316652 -1.206105586305285 0.6356561499555785 0.0
C C 0.43578567709539173 -1.1763027552287604 0.6814684144146128 0.0
H H 0.4074756770953917 -1.1764727552287606 0.7296284144146127 0.0
C C 0.4399416128205819 -1.1378614094905735 0.630658065461956 0.0
H H 0.36645161282058186 -1.1093314094905735 0.6470180654619562 0.0
O O 0.31406225503869295 -1.1341696361088425 0.445080299555688 0.0
O O 0.1436058311546018 -1.1102713602893381 0.4842010444880267 0.0
O O -0.14059874610919212 -0.8444374312454674 0.2688969051864679 0.0
O O 0.29657418196302343 -0.8926645872576933 0.16017762973466973 0.0
N N 0.08985141891849018 -0.8634820209487454 0.25700538426828434 0.0
N N 0.21927485900076377 -0.9976372206753579 0.41299892889224193 0.0
C C 0.13513533001276268 -1.150346293517255 0.44738346048334404 0.0
C C 0.006963019920910742 -1.222906458482889 0.4071456378502844 0.0
C C -0.10341703979929504 -1.2347964123567272 0.4485848151505009 0.0
H H -0.13762703979929503 -1.2100664123567273 0.48584481515050093 0.0
C C 0.1871373687906968 -0.7755053151661282 0.0792787335122262 0.0
H H 0.2855473687906968 -0.7843753151661282 0.059538733512226216 0.0
C C 0.1261217986458302 -0.7969412132669749 0.1268986558360484 0.0
C C -0.007529533903807097 -0.7852404882202446 0.19222813612489376 0.0
C C 0.12284399679505625 -1.243888986350335 0.39002083441408547 0.0
H H 0.22333399679505625 -1.2364589863503352 0.3712808344140855 0.0
C C 0.21995861339452472 -0.8265330458142814 0.14714231709623132 0.0
C C -0.09010263362954196 -0.8441083763340391 0.21729594327195867 0.0
C C 0.22464319971777238 -0.9980375539359184 0.2877964352533466 0.0
H H 0.28016319971777237 -1.0338075539359186 0.2775664352533466 0.0
C C 0.25110407528798184 -0.9831258067867673 0.26955897427909975 0.0
H H 0.2794140752879818 -0.9915958067867673 0.2224189742790998 0.0
C C 0.10913813169092706 -0.9374860689483165 0.27579342451925937 0.0
C C 0.07549704366474577 -0.8988342471762957 0.3587028669997229 0.0
H H 0.015517043664745779 -0.8644042471762958 0.3705628669997229 0.0
C C 0.12261552078858859 -0.930957758988726 0.39871464892076686 0.0
H H 0.09086552078858857 -0.9243377589887259 0.4457946489207668 0.0
_cell_length_a 8.39304
_cell_length_b 22.23511
_cell_length_c 18.74218
_cell_angle_alpha 90.0
_cell_angle_beta 94.0312
_cell_angle_gamma 90.0
_symmetry_space_group_name_H-M         'P 1'
_symmetry_Int_Tables_number            1
loop_
_symmetry_equiv_pos_as_xyz
   'x, y, z'
                         
loop_
_atom_site_label
_atom_site_type_symbol
_atom_site_fract_x 
_atom_site_fract_y
_atom_site_fract_z
_atom_site_charge
Cd Cd 0.29131694414875803 0.5591683076455234 0.9768755527122104 0.0
O O 0.39272285036061877 0.47030228708930816 1.0605919407758084 0.0
O O 0.19768408267515616 0.49031637906051573 1.0901806747708787 0.0
O O 0.9056250750095997 0.7943662100232901 1.1316684875460095 0.0
O O 0.3429276730503865 0.7819728693477921 1.2516517024623472 0.0
N N 0.4454865477126053 0.6015294124263084 1.0889327027430973 0.0
N N 0.6848798604215293 0.7682855037705125 1.1917675034747663 0.0
C C 0.2719740470351064 0.449963729319128 1.078516052986776 0.0
C C 0.2946536006184351 0.4384053559401046 1.1611968172894478 0.0
C C 0.0561593674033189 0.43744778459829475 1.1662015675454809 0.0
H H -0.01875063259668112 0.46830778459829475 1.1535615675454807 0.0
C C 0.06186852812379004 0.3621460948985466 1.2261971758727703 0.0
H H -0.03704147187620996 0.3627060948985466 1.2478571758727703 0.0
C C 0.20808335514431828 0.3399259610683198 1.2587790640991159 0.0
C C 0.36486614528451616 0.3287144310674121 1.2035666623636545 0.0
C C 0.404097269712165 0.35958446088225166 1.1683900526854258 0.0
H H 0.5017072697121651 0.3575544608822516 1.145860052685426 0.0
C C 0.5828666334926768 0.8210339162428442 1.253536568503938 0.0
C C 0.8013643342317818 0.7967055616220287 1.18098539449012 0.0
C C 0.6248191703279056 0.6573367854800588 1.0486813154041894 0.0
H H 0.6532291703279055 0.6546067854800589 1.0005513154041896 0.0
C C 0.6582334187882893 0.710752953944128 1.1125571386515427 0.0
H H 0.7290434187882895 0.7391229539441279 1.0940171386515427 0.0
C C 0.5665922384152994 0.6880490587896883 1.1505085179356658 0.0
C C 0.42403564514713454 0.6743562461406938 1.2132836556393347 0.0
H H 0.3957256451471346 0.6745262461406938 1.261443655639335 0.0
C C 0.4867967062213495 0.6136975239460516 1.1475008600314298 0.0
H H 0.41330670622134946 0.5851675239460515 1.16386086003143 0.0
O O 0.2726066804663811 0.634741484191953 0.9146597028785746 0.0
O O 0.11200432845163173 0.6239411605831819 1.0186325028598766 0.0
O O -0.20893975803705597 0.3377950172575551 0.787994178955842 0.0
O O 0.3538581928645485 0.36591259305240015 0.6845221359128443 0.0
N N 0.14717420050999228 0.3784692558446115 0.7460531536482133 0.0
N N 0.2479979338969187 0.5044855583438216 0.8830514923345509 0.0
C C 0.15020182998457637 0.6356348538779617 0.9375494612089774 0.0
C C 0.04310207300210739 0.6956595653350884 0.8917726528475822 0.0
C C -0.030607603427559926 0.6806732564639787 0.9643083856992676 0.0
H H -0.06481760342755993 0.6559432564639788 1.0015683856992674 0.0
C C 0.22398214140764366 0.2622719452943751 0.5879574149950386 0.0
H H 0.32239214140764366 0.2711419452943751 0.5682174149950385 0.0
C C 0.15387385165963532 0.31948870011974945 0.6247222040088428 0.0
C C -0.01334383728745762 0.2832713269754467 0.6769319802424427 0.0
C C 0.12270335806264937 0.7409212766528893 0.8296648604353144 0.0
H H 0.2231933580626494 0.7334912766528893 0.8109248604353144 0.0
C C 0.215709260671868 0.3632929689589756 0.703588642315877 0.0
C C -0.037039575265313845 0.33225754085959824 0.711097451098114 0.0
C C 0.2579420638550217 0.49459511857720384 0.8197151000398075 0.0
H H 0.3134620638550217 0.5303651185772039 0.8094851000398076 0.0
C C 0.2227443490523545 0.45675960916834546 0.7790862103196797 0.0
H H 0.25105434905235446 0.46522960916834544 0.7319462103196798 0.0
C C 0.11351300320418979 0.42317347637832103 0.8035336435206475 0.0
C C 0.07493608834700241 0.4044910223217083 0.8627021328178637 0.0
H H 0.014956088347002404 0.3700610223217084 0.8745621328178638 0.0
C C 0.09331550229165299 0.47365293228698996 0.8983722235244309 0.0
H H 0.06156550229165297 0.4670329322869899 0.9454522235244309 0.0
Cd Cd -0.28775439576238465 1.0646335686484405 -0.5117874897732608 0.0
O O -0.3656960342060076 0.9376709939588901 -0.5380179662005885 0.0
O O -0.2297714380483453 0.9932325471455917 -0.5842269232845718 0.0
O O -0.8720496347851294 1.232978598327863 -0.644559937452029 0.0
O O -0.39516546842999756 1.2371142280194825 -0.7642533482213584 0.0
N N -0.42523959559246205 1.1238615108156644 -0.563879096361521 0.0
N N -0.6921500464863481 1.2570602946899767 -0.7284762938638514 0.0
C C -0.29015077173423026 0.9573527172709844 -0.5826386785054003 0.0
C C -0.2663295871931207 0.9100245942260625 -0.659296294531908 0.0
C C -0.08442617547419083 0.9293095245254047 -0.6756581922335696 0.0
H H -0.009516175474190836 0.9601695245254049 -0.6630181922335696 0.0
C C -0.20711602548475938 0.8634246859455399 -0.7156584154294393 0.0
H H -0.10820602548475937 0.8639846859455399 -0.7373184154294393 0.0
C C -0.28320628907450823 0.8082110542523342 -0.7635045051933073 0.0
C C -0.316077852568387 0.8159479494200288 -0.7392740583639864 0.0
C C -0.4215933600204431 0.8768947108961398 -0.6940773007692376 0.0
H H -0.5192033600204432 0.8748647108961398 -0.6715473007692376 0.0
C C -0.4766350836345524 1.279595197598392 -0.7747775568633358 0.0
C C -0.7641815721588227 1.3067478416594378 -0.6555053203288346 0.0
C C -0.5429676409484538 1.1760566909340604 -0.5682633805038382 0.0
H H -0.5713776409484539 1.1733266909340603 -0.5201333805038383 0.0
C C -0.6527916384527194 1.2156831491422024 -0.5907725875643098 0.0
H H -0.7236016384527195 1.2440531491422024 -0.5722325875643097 0.0
C C -0.5928416488480283 1.2006015277976254 -0.6785100226627003 0.0
C C -0.45166297132079997 1.1721776383834135 -0.6652759524481596 0.0
H H -0.42335297132079996 1.1723476383834135 -0.7134359524481595 0.0
C C -0.42876141075121166 1.1144493753560722 -0.6449175678967104 0.0
H H -0.35527141075121166 1.0859193753560723 -0.6612775678967107 0.0
O O -0.24045322921508117 1.1348806048554823 -0.39632160551301787 0.0
O O -0.06691414651154873 1.1246965183923425 -0.4965687912385233 0.0
O O 0.1950574579800291 0.8118171217434905 -0.2875344913847002 0.0
O O -0.3385627404685613 0.8677511775565512 -0.17542122475412958 0.0
N N -0.14132437492539454 0.8594402751023388 -0.25776385403728846 0.0
N N -0.21860133838950938 1.0037502545474886 -0.38597303161236546 0.0
C C -0.13837768561197122 1.16648253195606 -0.44691909859680595 0.0
C C -0.0494666751397653 1.2076033560640476 -0.4266063052557123 0.0
C C 0.12000060493642922 1.2066867146267555 -0.4213569387549035 0.0
H H 0.15421060493642919 1.1819567146267556 -0.45861693875490345 0.0
C C -0.17857764242960075 0.7576951559426306 -0.08301313145987081 0.0
H H -0.27698764242960083 0.7665651559426306 -0.06327313145987085 0.0
C C -0.13298694711722073 0.8006714873335089 -0.09167390113898723 0.0
C C 0.03954098592537894 0.7831982829172582 -0.19483531075380167 0.0
C C -0.09105365182706684 1.2217812168635218 -0.3579241133633362 0.0
H H -0.19154365182706684 1.214351216863522 -0.3391841133633362 0.0
C C -0.22100234401440863 0.8513597065545971 -0.1820621132490592 0.0
C C 0.0960057170211342 0.8493004959382433 -0.256876897639773 0.0
C C -0.2854652934298816 0.9835717381760622 -0.34991402259957194 0.0
H H -0.34098529342988154 1.0193417381760623 -0.33968402259957203 0.0
C C -0.17610855007411017 0.9598153952112006 -0.2601262558142328 0.0
H H -0.20441855007411014 0.9682853952112006 -0.2129862558142328 0.0
C C -0.12212532747817646 0.9144504049722691 -0.2714487711875845 0.0
C C -0.07847721899015019 0.91228016606437 -0.364230709269681 0.0
H H -0.01849721899015019 0.8778501660643702 -0.37609070926968097 0.0
C C -0.13134537263199667 0.9299537181563621 -0.4230407302021993 0.0
H H -0.09959537263199666 0.923333718156362 -0.4701207302021993 0.0
Cd Cd -0.2884468640361322 -0.5651910883014877 -0.9949991716499645 0.0
O O -0.40826240135247616 -0.45371133123338736 -1.0490898506940247 0.0
O O -0.15807017643032842 -0.5079892358458038 -1.070431745261694 0.0
O O -0.9417653047311313 -0.78562826223838 -1.186654576933625 0.0
O O -0.38670274270628596 -0.7863918026855762 -1.244217045179859 0.0
N N -0.48878862629557285 -0.6184175061434842 -1.045871320056562 0.0
N N -0.6194744511447084 -0.7662492078372275 -1.2296167446462392 0.0
C C -0.29892917247831474 -0.44789205029130524 -1.0776872188444275 0.0
C C -0.24904097032543634 -0.41072316915388224 -1.1485945191562772 0.0
C C -0.16613090760206273 -0.42694892467678863 -1.1883156260424663 0.0
H H -0.0912209076020627 -0.45780892467678863 -1.1756756260424661 0.0
C C -0.1341110259749647 -0.36472940229877554 -1.2613506288798337 0.0
H H -0.03520102597496464 -0.36528940229877555 -1.2830106288798337 0.0
C C -0.11532973870053698 -0.34325860645584066 -1.2328161360907162 0.0
C C -0.2986083375930149 -0.32429624075400154 -1.1903036251979082 0.0
C C -0.39813808535145034 -0.3651504709942012 -1.1542520743127858 0.0
H H -0.4957480853514505 -0.36312047099420125 -1.1317220743127858 0.0
C C -0.5866868508146212 -0.7588283737928536 -1.2606576389542545 0.0
C C -0.8058715425822564 -0.7603351719816555 -1.178995573805342 0.0
C C -0.5897106581340019 -0.6379409078586433 -1.0323867946323178 0.0
H H -0.6181206581340019 -0.6352109078586434 -0.9842567946323179 0.0
C C -0.5870317117017425 -0.6971880871208462 -1.1193760347124777 0.0
H H -0.6578417117017425 -0.7255580871208461 -1.1008360347124777 0.0
C C -0.5662296835506097 -0.7071462446934884 -1.153845479710738 0.0
C C -0.4229153422942037 -0.70233252005295 -1.2090397321680273 0.0
H H -0.39460534229420374 -0.70250252005295 -1.2571997321680275 0.0
C C -0.3915188879758032 -0.5980205599637224 -1.1172859303179907 0.0
H H -0.31802888797580314 -0.5694905599637223 -1.1336459303179909 0.0
O O -0.26279257168060005 -0.6448990786149095 -0.8932161216448037 0.0
O O -0.0799038515653481 -0.6318518303835465 -0.9879361397208591 0.0
O O 0.16037066672672168 -0.36317215099673644 -0.7728692895514524 0.0
O O -0.423294893050609 -0.3764161270362396 -0.6940496408530757 0.0
N N -0.15414908784361017 -0.38610748332149497 -0.7417633348494269 0.0
N N -0.21527076339142054 -0.4802766524644023 -0.8776611034200299 0.0
C C -0.16831232357774778 -0.6467777074662561 -0.9303681057802025 0.0
C C -0.10192958995450013 -0.6763396771059004 -0.9103413343762876 0.0
C C 0.0535842868707604 -0.7139177472289875 -0.9528441226171764 0.0
H H 0.08779428687076044 -0.6891877472289876 -0.9901041226171764 0.0
C C -0.2278525659580759 -0.262447801803407 -0.6113761953419489 0.0
H H -0.3262625659580759 -0.271317801803407 -0.5916361953419489 0.0
C C -0.14405051152260934 -0.30785704155827226 -0.6286544482896463 0.0
C C 0.046970945056344825 -0.266184632736984 -0.672814091595945 0.0
C C -0.11012679240510967 -0.7349172296287674 -0.8495195179985406 0.0
H H -0.2106167924051097 -0.7274872296287674 -0.8307795179985407 0.0
C C -0.2680104259563749 -0.3312665016206358 -0.6982774287174891 0.0
C C 0.06045310018079788 -0.33994173422427987 -0.7354532304013408 0.0
C C -0.25607158229084964 -0.5034721645764475 -0.8348623419548944 0.0
H H -0.3115915822908496 -0.5392421645764476 -0.8246323419548944 0.0
C C -0.24621315788812276 -0.44308221126859626 -0.7715532024678239 0.0
H H -0.27452315788812276 -0.45155221126859624 -0.724413202467824 0.0
C C -0.12990135361142013 -0.4248691147738218 -0.7786196926089192 0.0
C C -0.11284090555471649 -0.4294301466216762 -0.8500685414254401 0.0
H H -0.05286090555471651 -0.39500014662167626 -0.8619285414254403 0.0
C C -0.13459291709706814 -0.43807616750881184 -0.9031160314222548 0.0
H H -0.10284291709706812 -0.4314561675088118 -0.9501960314222548 0.0
Cd Cd 0.3485971213340139 -1.0533020390915773 0.48587707979719497 0.0
O O 0.32755523824893745 -0.9727721636349285 0.554853172613989 0.0
O O 0.25521778660476624 -1.0072251303568085 0.5619261825109545 0.0
O O 0.9487976839518087 -1.2999870865147087 0.6145079090503742 0.0
O O 0.36527892773360643 -1.2441406196904383 0.7486495988106642 0.0
N N 0.4687827454765818 -1.136084059287945 0.5449352944174739 0.0
N N 0.6265329055417076 -1.2511777395412145 0.7052417839539894 0.0
C C 0.2994677054016715 -0.9527746810545055 0.5910051513057024 0.0
C C 0.3062903186808947 -0.9140730977421474 0.6341507147006229 0.0
C C 0.24968562994893304 -0.910559899127754 0.6841015059407991 0.0
H H 0.17477562994893306 -0.9414198991277543 0.6714615059407991 0.0
C C 0.08989484456366284 -0.8704901534636711 0.7618937738984716 0.0
H H -0.009015155436337203 -0.8710501534636711 0.7835537738984716 0.0
C C 0.17945058685062776 -0.8650160486628459 0.7521401465686695 0.0
C C 0.37532984319388557 -0.8115270492518398 0.7089659485757694 0.0
C C 0.4012124043103861 -0.8659266152555265 0.6459496092294802 0.0
H H 0.49882240431038616 -0.8638966152555264 0.6234196092294801 0.0
C C 0.5885806636998704 -1.2898534846640128 0.7484586954120508 0.0
C C 0.7792483289550607 -1.2823114175508592 0.6921896129654731 0.0
C C 0.5565870395620235 -1.1425869711969692 0.5268737784471995 0.0
H H 0.5849970395620236 -1.139856971196969 0.4787437784471997 0.0
C C 0.5660877895828714 -1.2051279008600788 0.5745990583946828 0.0
H H 0.6368977895828715 -1.2334979008600788 0.5560590583946827 0.0
C C 0.5845808679459807 -1.2115888684604101 0.6315394075702537 0.0
C C 0.4341012406305966 -1.2093085725778936 0.6858849695198685 0.0
H H 0.4057912406305966 -1.2094785725778938 0.7340449695198684 0.0
C C 0.3810588840648196 -1.135713822567636 0.6151012194674484 0.0
H H 0.30756888406481947 -1.107183822567636 0.6314612194674487 0.0
O O 0.3190680889540784 -1.1370371730013478 0.4155229914478209 0.0
O O 0.0668483068759042 -1.1123075663624198 0.4862292087827096 0.0
O O -0.16567285742295404 -0.862773767604946 0.2701227331365759 0.0
O O 0.3669052464152029 -0.8946274909280773 0.22527973837448567 0.0
N N 0.08438956474832089 -0.881223495970171 0.22227929258944676 0.0
N N 0.25047029266325166 -0.985916227412006 0.3825860792860124 0.0
C C 0.1357544189003965 -1.1536695214543122 0.440511242017391 0.0
C C 0.009063051136689966 -1.2192071085609615 0.3968795182047941 0.0
C C -0.07738662981248205 -1.202801432449483 0.43021199888688666 0.0
H H -0.11159662981248204 -1.178071432449483 0.4674719988868867 0.0
C C 0.18057882900100888 -0.7657348892478532 0.10214863284043567 0.0
H H 0.2789888290010089 -0.7746048892478532 0.08240863284043569 0.0
C C 0.08662367750768121 -0.7959194869049986 0.13771984969821305 0.0
C C 0.010357543223413798 -0.792270624687229 0.1860336291096798 0.0
C C 0.06216221289434511 -1.24676480630487 0.3330897521795067 0.0
H H 0.16265221289434512 -1.23933480630487 0.3143497521795067 0.0
C C 0.2717458753880514 -0.8408874816121015 0.18390028360987484 0.0
C C -0.005808911423224059 -0.8505905732861275 0.22193468111734554 0.0
C C 0.27875521550929283 -1.0087213275649327 0.33164917366847324 0.0
H H 0.3342752155092928 -1.0444913275649328 0.32141917366847333 0.0
C C 0.21132358533478365 -0.9637538205855073 0.2882099995655381 0.0
H H 0.23963358533478368 -0.9722238205855073 0.24106999956553812 0.0
C C 0.10066545740713262 -0.91502435838295 0.300201228810097 0.0
C C 0.09749829211901265 -0.8887407110536873 0.36729434476712547 0.0
H H 0.037518292119012656 -0.8543107110536874 0.3791543447671255 0.0
C C 0.10366420095403786 -0.9528239480457177 0.4205836432767115 0.0
H H 0.07191420095403785 -0.9462039480457176 0.46766364327671145 0.0
