_cell_length_a 8.39304
_cell_length_b 22.23511
_cell_length_c 18.74218
_cell_angle_alpha 90.0
_cell_angle_beta 94.0312
_cell_angle_gamma 90.0
_symmetry_space_group_name_H-M         'P 1'
_symmetry_Int_Tables_number            1
loop_
_symmetry_equiv_pos_as_xyz
   'x, y, z'
                         
loop_
_atom_site_label
_atom_site_type_symbol
_atom_site_fract_x 
_atom_site_fract_y
_atom_site_fract_z
_atom_site_charge
Cd Cd 0.3564452636983943 0.5420949498698314 1.000444429505968 0.0
O O 0.5014539837662897 0.45541963718717354 1.0872848832895687 0.0
O O 0.2160229869395306 0.5148239056501025 1.0773741830585086 0.0
O O 0.8972854339618146 0.7658971674787688 1.1991064152409088 0.0
O O 0.46603463963842534 0.825783865616154 1.22286438320765 0.0
N N 0.4175983857280404 0.6310948009715266 1.048339975243222 0.0
N N 0.5885787603337246 0.7274585365826463 1.2083856518490763 0.0
C C 0.33940727650769614 0.46351359617599075 1.0681047547425386 0.0
C C 0.22127741745783863 0.40505421330210417 1.1635125914339637 0.0
C C 0.07644133245757538 0.42333375126973755 1.1715597597208673 0.0
H H 0.0015313324575753234 0.45419375126973754 1.1589197597208674 0.0
C C 0.11114554114887665 0.3936910003843474 1.2097322616546518 0.0
H H 0.01223554114887666 0.3942510003843474 1.231392261654652 0.0
C C 0.1939087786063464 0.31944187192629486 1.2490415671761295 0.0
C C 0.3400281433848142 0.34011420842418283 1.2028636839265079 0.0
C C 0.3797006124512154 0.34289510806861967 1.1488201201828163 0.0
H H 0.4773106124512155 0.34086510806861964 1.1262901201828164 0.0
C C 0.4746720796970272 0.7560702566437767 1.2521949934455838 0.0
C C 0.8381378399094115 0.7906078358314281 1.1801210624749003 0.0
C C 0.6271394205230147 0.6611766058084529 1.0618607614618518 0.0
H H 0.6555494205230148 0.6584466058084529 1.013730761461852 0.0
C C 0.6292638940282479 0.7260504431522664 1.095734868952903 0.0
H H 0.7000738940282478 0.7544204431522663 1.077194868952903 0.0
C C 0.5549774893070718 0.7222922732162367 1.148489601270112 0.0
C C 0.42430858994644166 0.6777419300063889 1.192427951925436 0.0
H H 0.3959985899464417 0.6779119300063888 1.240587951925436 0.0
C C 0.43073936250767153 0.6333869489890019 1.1152933206793523 0.0
H H 0.3572493625076715 0.604856948989002 1.1316533206793524 0.0
O O 0.244044104776578 0.6345774515645942 0.9180649404189645 0.0
O O 0.027416882586892993 0.618001305160788 0.9734501798754469 0.0
O O -0.12318798967315149 0.33252936909642683 0.7315227956238549 0.0
O O 0.35020490514535435 0.36865584143437685 0.6739877102925435 0.0
N N 0.1337732807582344 0.3538513984045135 0.7325341083274537 0.0
N N 0.2431296074093259 0.48479111812595566 0.8730289904495162 0.0
C C 0.14084415705953215 0.6750236624124194 0.9267967438507344 0.0
C C 0.04201513497736986 0.6858888449364166 0.8977219949763598 0.0
C C -0.15804580709351718 0.6720378088783358 0.8961038826739216 0.0
H H -0.19225580709351717 0.6473078088783358 0.9333638826739216 0.0
C C 0.2109376977296577 0.2583994389214262 0.5750801469344544 0.0
H H 0.3093476977296577 0.2672694389214262 0.5553401469344544 0.0
C C 0.12668842045478146 0.2937587810971981 0.6508707780440718 0.0
C C 0.026384332778959022 0.2713285695983559 0.6749720197895775 0.0
C C 0.07786110052987166 0.7357413024089917 0.8503813103138399 0.0
H H 0.1783511005298717 0.7283113024089918 0.8316413103138399 0.0
C C 0.1927408480326141 0.36062563804387443 0.6699383345696615 0.0
C C -0.022513293860679885 0.3384354688176842 0.6758769832787946 0.0
C C 0.3035004547656879 0.4898823863413616 0.8397537052248467 0.0
H H 0.3590204547656879 0.5256523863413617 0.8295237052248466 0.0
C C 0.24834689075395722 0.4715892647270681 0.7821783047220917 0.0
H H 0.2766568907539572 0.48005926472706806 0.7350383047220918 0.0
C C 0.20197418244573487 0.42891054945844415 0.8030802836234692 0.0
C C 0.10063888519656598 0.38648044454687946 0.8486676778542649 0.0
H H 0.04065888519656601 0.3520504445468795 0.8605276778542651 0.0
C C 0.10553787655868209 0.44651172602723577 0.8939562822987382 0.0
H H 0.07378787655868208 0.43989172602723575 0.9410362822987383 0.0
Cd Cd -0.27994874454594043 1.0445527523177696 -0.48636865081128866 0.0
O O -0.4475106002367352 0.9656509743473992 -0.5436614251291301 0.0
O O -0.20807014086994643 1.0014688418793292 -0.5760405084829092 0.0
O O -0.7520758030586945 1.2983085841074797 -0.6529540006637787 0.0
O O -0.40965590124313445 1.2541247641471158 -0.7811518373879205 0.0
N N -0.4867826230488942 1.11657011146298 -0.584227958563951 0.0
N N -0.655426246774042 1.2734507686238699 -0.6912473509659429 0.0
C C -0.2892215159367408 0.9620854848690013 -0.5981767505020834 0.0
C C -0.3017505406358156 0.9273417471524256 -0.659578072058628 0.0
C C -0.08453190142415896 0.9054931056226065 -0.6639017277105409 0.0
H H -0.009621901424158967 0.9363531056226068 -0.6512617277105409 0.0
C C -0.08519975700152992 0.8635253756839857 -0.7326592487976599 0.0
H H 0.013710242998470097 0.8640853756839857 -0.7543192487976599 0.0
C C -0.19615370609037208 0.8405540728685618 -0.7489569735350649 0.0
C C -0.3324328500364782 0.835758578380599 -0.7277663741262501 0.0
C C -0.3857102260700868 0.8657884944388762 -0.6575428975481838 0.0
H H -0.4833202260700869 0.8637584944388762 -0.6350128975481838 0.0
C C -0.6009429043778861 1.2983697937729082 -0.7613056006263567 0.0
C C -0.8172408183898531 1.2874469162052071 -0.6967034342355397 0.0
C C -0.5761599059463453 1.1497800987260471 -0.5279027031199711 0.0
H H -0.6045699059463453 1.147050098726047 -0.4797727031199712 0.0
C C -0.6067285882899676 1.1894152500200983 -0.5645505283846292 0.0
H H -0.6775385882899677 1.2177852500200983 -0.546010528384629 0.0
C C -0.5626979438345416 1.2124609295885753 -0.6393365852139996 0.0
C C -0.4834634883458589 1.1817963133174634 -0.6756603411337913 0.0
H H -0.45515348834585884 1.1819663133174634 -0.7238203411337911 0.0
C C -0.39618268007102375 1.136701401495394 -0.633632615508189 0.0
H H -0.3226926800710237 1.1081714014953938 -0.6499926155081892 0.0
O O -0.26587490609704884 1.1654300734463783 -0.3989530703547149 0.0
O O -0.06340929878987461 1.114013818122553 -0.5085158473954468 0.0
O O 0.134215697927304 0.8346994558771489 -0.2555315840709479 0.0
O O -0.42106172976159045 0.8809091850265202 -0.1135886340829152 0.0
N N -0.03926643351416693 0.8744192568857385 -0.23103918120069764 0.0
N N -0.19129842053876753 0.9893229537874212 -0.4003408246443784 0.0
C C -0.10767864699305825 1.1456494434463491 -0.45133523211718035 0.0
C C -0.02716331733068291 1.1926805876770694 -0.40323492747538736 0.0
C C 0.13856823049283495 1.2281028497408923 -0.4467814573281197 0.0
H H 0.17277823049283497 1.2033728497408922 -0.48404145732811965 0.0
C C -0.16307920834051262 0.749110698451312 -0.07651642033357427 0.0
H H -0.26148920834051265 0.757980698451312 -0.056776420333574294 0.0
C C -0.14156085880156538 0.7783306876625767 -0.1227574752626144 0.0
C C -0.0023919291892796914 0.7995173074384802 -0.1616471541230772 0.0
C C -0.08790490617539463 1.247246845758201 -0.37482176690273705 0.0
H H -0.18839490617539462 1.2398168457582013 -0.3560817669027371 0.0
C C -0.18359418405856318 0.8516930422468907 -0.19715735234859028 0.0
C C 0.05969649439882293 0.8282287024221652 -0.24463044657659727 0.0
C C -0.25397173901672143 1.0032802919437827 -0.3377816790243056 0.0
H H -0.3094917390167214 1.0390502919437827 -0.3275516790243057 0.0
C C -0.27296092981143 0.9897483006446485 -0.293444454242192 0.0
H H -0.30127092981143 0.9982183006446484 -0.24630445424219205 0.0
C C -0.13396293783454274 0.903894456520715 -0.27590442239392454 0.0
C C -0.06589425798994836 0.9072422479131224 -0.347128855228132 0.0
H H -0.005914257989948361 0.8728122479131224 -0.35898885522813206 0.0
C C -0.14806155230891502 0.950481950550272 -0.4147890336384214 0.0
H H -0.11631155230891502 0.943861950550272 -0.4618690336384214 0.0
Cd Cd -0.3563583151807605 -0.5591869093862578 -0.9742786137522053 0.0
O O -0.36760364042583404 -0.47165963384806703 -1.0355683766487664 0.0
O O -0.1798523625010241 -0.530265128858861 -1.0668211078619259 0.0
O O -0.8620604167091004 -0.7993534353393857 -1.1739075872325098 0.0
O O -0.26466797801710884 -0.8069740493501777 -1.2661627949977006 0.0
N N -0.47571424488999475 -0.6374623030598399 -1.0583286263360292 0.0
N N -0.6217263758103363 -0.7592362746942891 -1.161521368605246 0.0
C C -0.32035749367939537 -0.46753549097397173 -1.1093931543775437 0.0
C C -0.2368434419471746 -0.4107366753237488 -1.1560711396278487 0.0
C C -0.1294936759882755 -0.4087540420865706 -1.1548581973373069 0.0
H H -0.05458367598827546 -0.4396140420865707 -1.1422181973373067 0.0
C C -0.031858046013769244 -0.35769225334128213 -1.1972800849371645 0.0
H H 0.06705195398623072 -0.35825225334128213 -1.2189400849371645 0.0
C C -0.24923988256490473 -0.34896483063558675 -1.241997879685547 0.0
C C -0.38893043354301127 -0.33088710421255374 -1.1891255424661693 0.0
C C -0.37774534910729285 -0.37435382046814886 -1.1566154898827008 0.0
H H -0.475355349107293 -0.3723238204681488 -1.1340854898827009 0.0
C C -0.543466560208003 -0.785477412463469 -1.2446571006900906 0.0
C C -0.7734485845302987 -0.788770402318842 -1.2188531492310795 0.0
C C -0.5678121741607056 -0.6325508970267202 -1.046424885661443 0.0
H H -0.5962221741607057 -0.6298208970267203 -0.9982948856614433 0.0
C C -0.59751284575596 -0.7045782503591692 -1.078959252526475 0.0
H H -0.6683228457559602 -0.732948250359169 -1.060419252526475 0.0
C C -0.5506495237150807 -0.7199958270866785 -1.1299741969088284 0.0
C C -0.5245953952612219 -0.6770021825483864 -1.1871709811849687 0.0
H H -0.49628539526122195 -0.6771721825483864 -1.2353309811849686 0.0
C C -0.43596463433510574 -0.6330433412525031 -1.1127356363684444 0.0
H H -0.3624746343351057 -0.6045133412525031 -1.1290956363684446 0.0
O O -0.23055036264832696 -0.6472666877031146 -0.9119658457720026 0.0
O O -0.07258163320014481 -0.6093216140592189 -0.9799994414580677 0.0
O O 0.18908682702955337 -0.32890369653718693 -0.7611830923348105 0.0
O O -0.4095734026919294 -0.36298440868565357 -0.670756175465213 0.0
N N -0.11245632037083231 -0.3652598231223569 -0.7477396381135563 0.0
N N -0.2614517036811036 -0.5009572843764634 -0.9165109420516799 0.0
C C -0.1248964495429379 -0.6463068207029427 -0.9107321896401542 0.0
C C -0.0016442574628453164 -0.7059743976889804 -0.9118027870460994 0.0
C C 0.10972743330086729 -0.7319497165435465 -0.9342782095806114 0.0
H H 0.1439374333008673 -0.7072197165435465 -0.9715382095806112 0.0
C C -0.17890184464516984 -0.25227783126747966 -0.5742509683218354 0.0
H H -0.27731184464516984 -0.2611478312674797 -0.5545109683218353 0.0
C C -0.1349257538938447 -0.31055590956570933 -0.6334366813640105 0.0
C C 0.021539016448318966 -0.2947422650903781 -0.6686068583947666 0.0
C C -0.06186440462114483 -0.7465162616126058 -0.8627221236466025 0.0
H H -0.16235440462114484 -0.7390862616126057 -0.8439821236466024 0.0
C C -0.1684479704160598 -0.3431651549172953 -0.6805440215928502 0.0
C C -0.002023342492062351 -0.3645351515803437 -0.7375347069929764 0.0
C C -0.2736174983955035 -0.5113066549887679 -0.8209958487101112 0.0
H H -0.32913749839550344 -0.547076654988768 -0.8107658487101113 0.0
C C -0.2487100335501503 -0.46787140870698096 -0.7603114881451536 0.0
H H -0.2770200335501503 -0.47634140870698094 -0.7131714881451536 0.0
C C -0.15512542512655816 -0.4235879653924647 -0.7838649061212288 0.0
C C -0.037176769863165454 -0.3961718802567514 -0.8426171620647186 0.0
H H 0.02280323013683453 -0.36174188025675136 -0.8544771620647188 0.0
C C -0.10005209389786833 -0.4410593418496719 -0.9144147723054524 0.0
H H -0.06830209389786832 -0.43443934184967187 -0.9614947723054524 0.0
Cd Cd 0.3216541946615705 -1.040520631054302 0.4984583631828594 0.0
O O 0.49829809863365143 -0.9590160742837948 0.5733463764479491 0.0
O O 0.17419827346148398 -1.0077535159787054 0.5836037250913624 0.0
O O 0.9381003115441843 -1.258839070710291 0.6624164782630679 0.0
O O 0.3531755604204475 -1.2429857513784304 0.7045492446579771 0.0
N N 0.402177017092021 -1.108639579397611 0.5743406785734085 0.0
N N 0.6984061940760316 -1.2559466151759886 0.6944954493460976 0.0
C C 0.2836442399737179 -0.9631959327978455 0.60428902770182 0.0
C C 0.24852929281058506 -0.9226792981348246 0.6297058652873219 0.0
C C 0.10736712180677861 -0.9057532964774149 0.6938055796794572 0.0
H H 0.03245712180677864 -0.9366132964774151 0.6811655796794573 0.0
C C 0.12797177024628312 -0.8639379981295924 0.7446390637167524 0.0
H H 0.029061770246283095 -0.8644979981295924 0.7662990637167523 0.0
C C 0.1701085330882662 -0.8493130949813794 0.761009917386821 0.0
C C 0.35956322158226345 -0.8271069142827637 0.7012063848044298 0.0
C C 0.3622839306679276 -0.8684214039821205 0.6438857923974954 0.0
H H 0.45989393066792766 -0.8663914039821206 0.6213557923974954 0.0
C C 0.5017109562960478 -1.2712439060652023 0.74153014373561 0.0
C C 0.7709540566971184 -1.2623724640381733 0.7003343587700864 0.0
C C 0.5843482939789804 -1.1494051405594314 0.523022245984399 0.0
H H 0.6127582939789804 -1.1466751405594313 0.4748922459843991 0.0
C C 0.6265824469470762 -1.2256609827232885 0.6190570252307318 0.0
H H 0.6973924469470764 -1.2540309827232887 0.6005170252307317 0.0
C C 0.6005725746964051 -1.2247794458519474 0.6371886094853207 0.0
C C 0.49008375181680175 -1.1545214816095966 0.6822816378401364 0.0
H H 0.4617737518168017 -1.1546914816095966 0.7304416378401364 0.0
C C 0.484640199699055 -1.1426976848961148 0.6152369344477643 0.0
H H 0.4111501996990549 -1.1141676848961148 0.6315969344477645 0.0
O O 0.3124004726981018 -1.1411586674866347 0.4008860405259316 0.0
O O 0.0982718551707561 -1.156754742140739 0.46953357350500513 0.0
O O -0.14048885372699682 -0.831584960555091 0.2676038794270206 0.0
O O 0.3136379620460021 -0.8729836404694927 0.1630302895139123 0.0
N N 0.10867502887637168 -0.8621458067378389 0.2603468240988162 0.0
N N 0.21369031460881052 -0.99762819125867 0.39437508718816705 0.0
C C 0.1588101072922097 -1.1655683823645517 0.44128992132736483 0.0
C C 0.10892383863309621 -1.2088586031247732 0.4066883310375455 0.0
C C -0.11971701301041353 -1.2018175432212599 0.4320543840947258 0.0
H H -0.1539270130104135 -1.17708754322126 0.4693143840947258 0.0
C C 0.1998423281239024 -0.7772677246873344 0.05325266992997057 0.0
H H 0.2982523281239024 -0.7861377246873344 0.03351266992997059 0.0
C C 0.11465286727899077 -0.8164066371901871 0.13876605810523066 0.0
C C -0.000544918340574729 -0.7748162784373148 0.15599412127153117 0.0
C C 0.0901595800847987 -1.2352861351719284 0.3552333804685555 0.0
H H 0.19064958008479868 -1.2278561351719286 0.33649338046855554 0.0
C C 0.2860279361968184 -0.8633751711306136 0.1833958266549708 0.0
C C -0.020314110244783634 -0.8314477750011952 0.2375946491218914 0.0
C C 0.20747174146756764 -1.0042312468380903 0.31825917201484594 0.0
H H 0.26299174146756765 -1.0400012468380904 0.30802917201484603 0.0
C C 0.1913212577013272 -0.9728398111403705 0.2981929953636408 0.0
H H 0.21963125770132724 -0.9813098111403705 0.25105299536364084 0.0
C C 0.18775764679255993 -0.8952614652166155 0.26226605622457816 0.0
C C 0.1406285680562843 -0.8863041296324267 0.34544221179501144 0.0
H H 0.08064856805628431 -0.8518741296324267 0.3573022117950114 0.0
C C 0.11855229463848437 -0.9483858248194406 0.39666824942024725 0.0
H H 0.08680229463848436 -0.9417658248194405 0.4437482494202472 0.0
_cell_length_a 8.39304
_cell_length_b 22.23511
_cell_length_c 18.74218
_cell_angle_alpha 90.0
_cell_angle_beta 94.0312
_cell_angle_gamma 90.0
_symmetry_space_group_name_H-M         'P 1'
_symmetry_Int_Tables_number            1
loop_
_symmetry_equiv_pos_as_xyz
   'x, y, z'
                         
loop_
_atom_site_label
_atom_site_type_symbol
_atom_site_fract_x 
_atom_site_fract_y
_atom_site_fract_z
_atom_site_charge
Cd Cd 0.3361259315261449 0.5394751593744692 0.9935525445659993 0.0
O O 0.473259243173045 0.46335917461260145 1.0141324526432278 0.0
O O 0.21447937184913954 0.49832069091857106 1.0693780911642876 0.0
O O 0.9332340615094632 0.7883044096008265 1.1519561322651612 0.0
O O 0.25936791538670045 0.7677092237404657 1.2834939428718846 0.0
N N 0.45699879987316244 0.618090087033401 1.0607685274171894 0.0
N N 0.581457493923201 0.7584941825306167 1.1588657034594212 0.0
C C 0.3284281075083194 0.48033923197304146 1.1112858518479387 0.0
C C 0.2921233496710569 0.4313193411289218 1.1580134539460871 0.0
C C 0.1270315305077893 0.41072612679512116 1.1653158527409746 0.0
H H 0.05212153050778925 0.44158612679512116 1.1526758527409744 0.0
C C 0.05545935841140566 0.37754006593404754 1.2405589501697594 0.0
H H -0.04345064158859436 0.37810006593404755 1.2622189501697594 0.0
C C 0.17486211393681153 0.3312791832842228 1.2458027441963324 0.0
C C 0.29630969311057764 0.337396827472368 1.2203128330677835 0.0
C C 0.35526694235071393 0.37868755557518907 1.1708256509334722 0.0
H H 0.4528769423507141 0.3766575555751891 1.1482956509334723 0.0
C C 0.6002695988482591 0.7678940928593134 1.2724890145297374 0.0
C C 0.756236900975899 0.7782439883558134 1.1816532852066073 0.0
C C 0.5474106814040808 0.6798712142625676 1.0316257062900343 0.0
H H 0.5758206814040807 0.6771412142625677 0.9834957062900344 0.0
C C 0.6835166969373917 0.6731647300390722 1.0840553015916214 0.0
H H 0.7543266969373917 0.7015347300390721 1.0655153015916214 0.0
C C 0.5985829837769673 0.6973899192136594 1.1374908482282142 0.0
C C 0.4146830591385858 0.6555644981849604 1.180468502713144 0.0
H H 0.38637305913858583 0.6557344981849604 1.2286285027131443 0.0
C C 0.39806852072827353 0.609219421718747 1.1465547952568271 0.0
H H 0.32457852072827353 0.580689421718747 1.1629147952568273 0.0
O O 0.28163007356840525 0.6580232055724393 0.8912682751210176 0.0
O O 0.009190554812113927 0.6317474638107639 1.0094032073855839 0.0
O O -0.17581850966790177 0.3427996124907157 0.781218237643626 0.0
O O 0.3328352042432143 0.39553071745524243 0.6710750369289719 0.0
N N 0.13644223484758564 0.3716412240184978 0.7483280952099518 0.0
N N 0.21534267354836292 0.5018019965936168 0.9208625082434707 0.0
C C 0.13036410819612318 0.6614351110449803 0.9553770154264397 0.0
C C 0.03908158514889462 0.7000992875465032 0.8995992509909367 0.0
C C -0.07228742151796429 0.7106790209630572 0.9395009276519237 0.0
H H -0.10649742151796429 0.6859490209630573 0.9767609276519236 0.0
C C 0.23003989748045356 0.27554291541543074 0.5881820672703251 0.0
H H 0.3284498974804536 0.28441291541543073 0.5684420672703251 0.0
C C 0.13403456788325258 0.2844466951638654 0.6335672407432096 0.0
C C 0.04321875631673269 0.2753083447508511 0.6347093882130147 0.0
C C 0.10911151150176333 0.7363728792004621 0.8859061266701629 0.0
H H 0.20960151150176334 0.7289428792004621 0.8671661266701629 0.0
C C 0.1565072897933882 0.35494140975234595 0.6940577784428313 0.0
C C -0.0492971832577386 0.346356448707434 0.7053790212959642 0.0
C C 0.23908682945831872 0.5003471985891654 0.8426913246101877 0.0
H H 0.2946068294583187 0.5361171985891655 0.8324613246101877 0.0
C C 0.209602680496223 0.4660001435337645 0.7357148714356765 0.0
H H 0.237912680496223 0.4744701435337645 0.6885748714356765 0.0
C C 0.1199661132809847 0.40277464139023694 0.7971197324739742 0.0
C C 0.11453298706702857 0.42512813592725035 0.8378043945487404 0.0
H H 0.054552987067028574 0.39069813592725033 0.8496643945487405 0.0
C C 0.1792804667552156 0.44369311452264404 0.8971514436445008 0.0
H H 0.14753046675521558 0.437073114522644 0.9442314436445008 0.0
Cd Cd -0.33815651726244783 1.0504001538399348 -0.4930621826006338 0.0
O O -0.41734859394934726 0.9627987813550296 -0.5113961131723468 0.0
O O -0.15861388781383817 1.0220535284471475 -0.5714679879101141 0.0
O O -0.8793318071032212 1.3011447336440103 -0.6582692640009903 0.0
O O -0.45552463405806953 1.2409599465294228 -0.729898318380575 0.0
N N -0.4846819515116871 1.1155720476949966 -0.5597630775709211 0.0
N N -0.6731933219863694 1.2490246031801309 -0.690451019258466 0.0
C C -0.29130173980212914 0.9688091372678028 -0.605130155627856 0.0
C C -0.28667083096941903 0.9226665210846847 -0.64278960008481 0.0
C C -0.17806485297210298 0.9339054822349008 -0.6696786959395878 0.0
H H -0.10315485297210299 0.9647654822349009 -0.6570386959395879 0.0
C C -0.10676832659624068 0.8697941467955675 -0.7297885664439229 0.0
H H -0.007858326596240655 0.8703541467955676 -0.7514485664439228 0.0
C C -0.1602258462623287 0.8309711096096442 -0.7916785207908943 0.0
C C -0.3531225814024258 0.8369036225079133 -0.7343249742207786 0.0
C C -0.4547590750826872 0.8725618434822928 -0.6692377416410576 0.0
H H -0.5523690750826873 0.8705318434822928 -0.6467077416410576 0.0
C C -0.605624016594817 1.2876755469577148 -0.7166812039885027 0.0
C C -0.7941598513131317 1.3091630482909955 -0.714231694021276 0.0
C C -0.5393135067945494 1.1657923096373533 -0.5273988315054978 0.0
H H -0.5677235067945494 1.163062309637353 -0.479268831505498 0.0
C C -0.6187717485952052 1.2366615061131772 -0.6206343330713879 0.0
H H -0.6895817485952053 1.2650315061131772 -0.6020943330713879 0.0
C C -0.561313613330095 1.2078894060187864 -0.6528071481577304 0.0
C C -0.5057922711645998 1.1719330427224224 -0.6789983305767849 0.0
H H -0.47748227116459974 1.1721030427224224 -0.7271583305767849 0.0
C C -0.44405605731540354 1.1554922010318955 -0.6177658151014022 0.0
H H -0.3705660573154035 1.1269622010318958 -0.6341258151014023 0.0
O O -0.2458042312300443 1.1150463302840163 -0.3938380006032692 0.0
O O -0.11946892913734987 1.1213624149059147 -0.4939588966178188 0.0
O O 0.11398285866384357 0.834455624377733 -0.24410182837641728 0.0
O O -0.275852783369168 0.8882293518023348 -0.1470169259724766 0.0
N N -0.12822386768830601 0.8753215457185676 -0.20472928579675398 0.0
N N -0.18778349161507735 1.0015527379994549 -0.39123872511999924 0.0
C C -0.11944901153250151 1.1552049146477432 -0.4517221456995568 0.0
C C -0.005878526376072229 1.2068464906169145 -0.3810746284872714 0.0
C C 0.01965920303149358 1.2511467210438758 -0.4414877337096639 0.0
H H 0.05386920303149359 1.226416721043876 -0.4787477337096639 0.0
C C -0.18437676148741028 0.7879148975919675 -0.12370974868968895 0.0
H H -0.2827867614874102 0.7967848975919676 -0.10396974868968899 0.0
C C -0.14518504908649552 0.825978171522765 -0.17195908442546032 0.0
C C 0.011129070292721343 0.8001763666038718 -0.16636266421956775 0.0
C C -0.0700740352165518 1.2389803066911997 -0.3761347320515893 0.0
H H -0.17056403521655178 1.2315503066912 -0.35739473205158934 0.0
C C -0.1990924667248061 0.8507370131927766 -0.17651871398598645 0.0
C C 0.02830363489414896 0.8493380111124501 -0.23629866427193832 0.0
C C -0.25722489590565617 0.9897135144497343 -0.34631311461160547 0.0
H H -0.31274489590565624 1.0254835144497345 -0.33608311461160556 0.0
C C -0.23180105703447837 0.962477623628636 -0.24853429674708652 0.0
H H -0.2601110570344784 0.970947623628636 -0.20139429674708653 0.0
C C -0.17335844634889935 0.9083239515710645 -0.29063321156791105 0.0
C C -0.08832890916876941 0.894018658065984 -0.39045484388641977 0.0
H H -0.028348909168769424 0.8595886580659842 -0.4023148438864198 0.0
C C -0.1883306704891137 0.9533978239474071 -0.4255843602499794 0.0
H H -0.15658067048911367 0.9467778239474071 -0.4726643602499793 0.0
Cd Cd -0.3147140154933675 -0.5664810590927445 -0.987332102238126 0.0
O O -0.4605011759647974 -0.4771999896920675 -1.0335648365164483 0.0
O O -0.18004306586035607 -0.5130318943845165 -1.0604397730992154 0.0
O O -0.839490165745094 -0.7872521473681722 -1.1325331444170192 0.0
O O -0.3949772846957943 -0.7575455015363532 -1.2826488167840315 0.0
N N -0.4527171295523829 -0.6181510535903482 -1.0639889094724206 0.0
N N -0.5872616757793947 -0.7631268243124485 -1.2256533207556415 0.0
C C -0.3090584837599533 -0.47688000450979995 -1.068597727340393 0.0
C C -0.32650206063292336 -0.4208719087684203 -1.1308843883420443 0.0
C C -0.1845891119966728 -0.44017379457526173 -1.1902911666813092 0.0
H H -0.10967911199667274 -0.4710337945752618 -1.177651166681309 0.0
C C -0.11679834831420231 -0.422773108512293 -1.2367822846536876 0.0
H H -0.017888348314202326 -0.423333108512293 -1.2584422846536878 0.0
C C -0.20987416082211924 -0.35533063362511086 -1.2491285835821473 0.0
C C -0.3519915415041536 -0.32447204026368864 -1.2183665452501242 0.0
C C -0.35970813389432515 -0.37731280260220385 -1.1695939796796309 0.0
H H -0.45731813389432524 -0.37528280260220387 -1.147063979679631 0.0
C C -0.5595729442254967 -0.7974112802131679 -1.2670058124067591 0.0
C C -0.7888675251395654 -0.7952530806457486 -1.219925471631958 0.0
C C -0.5826104379727889 -0.6684378748409048 -1.050914020382647 0.0
H H -0.6110204379727889 -0.6657078748409049 -1.002784020382647 0.0
C C -0.6087001478899388 -0.708643856444449 -1.102775905558738 0.0
H H -0.6795101478899388 -0.7370138564444488 -1.084235905558738 0.0
C C -0.6526400366052486 -0.699052275802755 -1.1660417029433456 0.0
C C -0.45954468048399894 -0.6715252574893361 -1.1565488051412278 0.0
H H -0.431234680483999 -0.6716952574893361 -1.2047088051412278 0.0
C C -0.4379709486192757 -0.6182500552817438 -1.1517386085371772 0.0
H H -0.3644809486192757 -0.5897200552817438 -1.1680986085371772 0.0
O O -0.200849681482093 -0.637788380745246 -0.903186918843115 0.0
O O -0.07879057358398295 -0.6169842871561936 -0.9835267092776189 0.0
O O 0.12120431306684086 -0.31093942155452514 -0.7754871198253974 0.0
O O -0.3632613222275241 -0.3745195481093247 -0.6717831543881306 0.0
N N -0.08303918212111902 -0.36351373786628144 -0.7598766782433529 0.0
N N -0.26872964031159025 -0.49359207887109297 -0.8975842515976573 0.0
C C -0.13442977187316807 -0.6724149401567981 -0.9323411661375284 0.0
C C -0.08868802622817126 -0.6681348480281102 -0.9018801262612726 0.0
C C 0.17967845413383673 -0.6978326594127402 -0.9158718284086154 0.0
H H 0.21388845413383675 -0.6731026594127403 -0.9531318284086152 0.0
C C -0.18266391207996824 -0.28052461377492555 -0.5881887259223378 0.0
H H -0.28107391207996824 -0.2893946137749256 -0.5684487259223377 0.0
C C -0.09549684524728709 -0.276516844962672 -0.6256722356111747 0.0
C C 0.012495157520304626 -0.30323449657592333 -0.6452246819645127 0.0
C C -0.1874630769178305 -0.7305514926359372 -0.8370282598981507 0.0
H H -0.28795307691783056 -0.7231214926359372 -0.8182882598981507 0.0
C C -0.12008082695911063 -0.3391793376798682 -0.6672709384770362 0.0
C C 0.03710070318567366 -0.327788213235225 -0.7312895939364689 0.0
C C -0.3241468514253288 -0.512565610425765 -0.802993009235929 0.0
H H -0.37966685142532874 -0.5483356104257651 -0.792763009235929 0.0
C C -0.19414712992827118 -0.4578657570604093 -0.7572186102487825 0.0
H H -0.22245712992827119 -0.46633575706040925 -0.7100786102487825 0.0
C C -0.15911560555671148 -0.413983156004774 -0.8000736280055777 0.0
C C -0.12694473594711056 -0.4321419845355085 -0.8659082122961743 0.0
H H -0.06696473594711057 -0.39771198453550854 -0.8777682122961744 0.0
C C -0.15079566930537652 -0.45936175044964794 -0.9283672191843282 0.0
H H -0.11904566930537651 -0.45274175044964793 -0.9754472191843282 0.0
Cd Cd 0.3249750280695554 -1.061726499632191 0.4659902169451058 0.0
O O 0.4615470988259206 -0.9505664654997013 0.5496161297760471 0.0
O O 0.22925654321532787 -1.0150941838554153 0.5577006787179863 0.0
O O 0.9373921717217253 -1.2455041315642468 0.6913965831892217 0.0
O O 0.4044332778280036 -1.2612257413849324 0.6978293849674704 0.0
N N 0.4037216873688454 -1.127868143259388 0.5451461948994498 0.0
N N 0.5947702263536351 -1.2724945415073097 0.700612563183258 0.0
C C 0.32465989913717996 -0.9667943751932948 0.5908710612220403 0.0
C C 0.24693562193104202 -0.9062944097749261 0.661634090564844 0.0
C C 0.06124112569650576 -0.9035712829174263 0.6502878997028946 0.0
H H -0.01366887430349424 -0.9344312829174265 0.6376478997028946 0.0
C C 0.05186873735119415 -0.8867190923047417 0.7890522083532024 0.0
H H -0.04704126264880584 -0.8872790923047417 0.8107122083532025 0.0
C C 0.20190094601797196 -0.8442343263013227 0.7279237536867095 0.0
C C 0.3524113837602301 -0.8514574841504454 0.7347075388434607 0.0
C C 0.37444847240322404 -0.8642000271331471 0.6753176642843443 0.0
H H 0.47205847240322407 -0.8621700271331472 0.6527876642843442 0.0
C C 0.5871303540878423 -1.2945006801800505 0.735122993338002 0.0
C C 0.7972589485418133 -1.2950397380085346 0.6658294210597827 0.0
C C 0.6015144972802826 -1.140635908172124 0.5398272689841386 0.0
H H 0.6299244972802827 -1.137905908172124 0.49169726898413874 0.0
C C 0.5968271602423789 -1.2296681528922775 0.6175406987194395 0.0
H H 0.6676371602423791 -1.2580381528922775 0.5990006987194395 0.0
C C 0.5418869380964414 -1.1736511801246123 0.6569061697717002 0.0
C C 0.509866450061278 -1.1554976964580594 0.6784606807305588 0.0
H H 0.48155645006127795 -1.1556676964580594 0.7266206807305587 0.0
C C 0.42979924934772273 -1.1060223183796125 0.5817226467399554 0.0
H H 0.3563092493477227 -1.0774923183796126 0.5980826467399556 0.0
O O 0.28967757840409725 -1.1341568184377497 0.3893303713545795 0.0
O O 0.12104933160674432 -1.137740234544042 0.47881235093995 0.0
O O -0.13528605105342031 -0.8339063111657766 0.21747247583857943 0.0
O O 0.27212933276440987 -0.8865147179978609 0.1294260159243183 0.0
N N 0.17165723694575336 -0.8622725948689477 0.2141336370386235 0.0
N N 0.23197833721655178 -0.9866664495317439 0.398273217424557 0.0
C C 0.12544071480711666 -1.1632831267297732 0.4427584579790613 0.0
C C 0.06403439835940326 -1.2022430149400245 0.38554828779479966 0.0
C C -0.19766765537435504 -1.232426409530141 0.4316420874277903 0.0
H H -0.23187765537435498 -1.207696409530141 0.4689020874277903 0.0
C C 0.19791281854164494 -0.7683496082035309 0.09259913794188185 0.0
H H 0.296322818541645 -0.777219608203531 0.07285913794188188 0.0
C C 0.1703397923904762 -0.7788848761727032 0.15481749862305144 0.0
C C -0.032855057107502535 -0.7969345062760179 0.13390135048315807 0.0
C C 0.07585817383750096 -1.250301957758978 0.3487235470053041 0.0
H H 0.17634817383750095 -1.2428719577589782 0.32998354700530413 0.0
C C 0.2643617290089212 -0.8453155977600914 0.17090244726991782 0.0
C C -0.039779260382456307 -0.8651912779782926 0.2175085962016473 0.0
C C 0.25913247706472514 -1.0000464829201687 0.3349527443643731 0.0
H H 0.31465247706472516 -1.0358164829201688 0.3247227443643732 0.0
C C 0.25137830504930897 -0.9517411722272658 0.2913750311338127 0.0
H H 0.27968830504930897 -0.9602111722272658 0.2442350311338127 0.0
C C 0.13694448399060416 -0.8964518462173138 0.28582451577495616 0.0
C C 0.16248343203299373 -0.9115682884930919 0.3401284581215271 0.0
H H 0.10250343203299374 -0.877138288493092 0.3519884581215271 0.0
C C 0.19314363887964706 -0.9628712409980729 0.42002152891576067 0.0
H H 0.16139363887964706 -0.9562512409980728 0.4671015289157607 0.0
