_cell_length_a 8.39304
_cell_length_b 22.23511
_cell_length_c 18.74218
_cell_angle_alpha 90.0
_cell_angle_beta 94.0312
_cell_angle_gamma 90.0
_symmetry_space_group_name_H-M         'P 1'
_symmetry_Int_Tables_number            1
loop_
_symmetry_equiv_pos_as_xyz
   'x, y, z'
                         
loop_
_atom_site_label
_atom_site_type_symbol
_atom_site_fract_x 
_atom_site_fract_y
_atom_site_fract_z
_atom_site_charge
Cd Cd 0.303570345041634 0.5423420024246612 0.9974043066258079 0.0
O O 0.4585125477089853 0.4743100474906305 1.064585052897374 0.0
O O 0.21822447390287347 0.5151799499186269 1.0960691988222853 0.0
O O 0.9128436283648691 0.8028525613474891 1.1617542831518624 0.0
O O 0.40010471814291065 0.7631221215665267 1.193293227068806 0.0
N N 0.46840085714878976 0.6215314879350947 1.0857201949133926 0.0
N N 0.6808669512057244 0.7582602975969656 1.1845144548920603 0.0
C C 0.32827653993764927 0.47493210363746213 1.0887726636409514 0.0
C C 0.260986239419562 0.41522515571306945 1.1471370328177004 0.0
C C 0.19283247960398134 0.43531542406359497 1.2032254676158183 0.0
H H 0.1179224796039813 0.466175424063595 1.1905854676158183 0.0
C C 0.054089839103332635 0.3745744768434341 1.2225203087690455 0.0
H H -0.04482016089666741 0.3751344768434341 1.2441803087690455 0.0
C C 0.25977220635651 0.3421533507593603 1.2537034197097592 0.0
C C 0.28711476541099784 0.3344592794511215 1.2209531088306282 0.0
C C 0.43872282287234393 0.3802040707643884 1.168060771841922 0.0
H H 0.5363328228723441 0.37817407076438836 1.145530771841922 0.0
C C 0.5330835411165008 0.7810605259947916 1.267258668580677 0.0
C C 0.8107345126475293 0.7704087187130664 1.2185223470953734 0.0
C C 0.5316074052766399 0.6583023119003978 1.0278885083376914 0.0
H H 0.5600174052766399 0.6555723119003979 0.9797585083376916 0.0
C C 0.6157301503608567 0.7156268504303132 1.0598398287999793 0.0
H H 0.6865401503608567 0.743996850430313 1.0412998287999793 0.0
C C 0.5835977792628128 0.7086270527896501 1.1558630696671393 0.0
C C 0.42450221363033436 0.6537501511954632 1.162879438726359 0.0
H H 0.3961922136303344 0.6539201511954632 1.211039438726359 0.0
C C 0.38999599009399677 0.6233710836093984 1.1259965435131538 0.0
H H 0.31650599009399677 0.5948410836093985 1.1423565435131537 0.0
O O 0.245544295411594 0.6445148629738104 0.9110360362276358 0.0
O O 0.0985884017229344 0.6221533662318014 0.9868659342695906 0.0
O O -0.11166181391734561 0.3677356234133568 0.7488620611161463 0.0
O O 0.3061712205188537 0.3789062481826362 0.6930081797245896 0.0
N N 0.04669904483452754 0.36165958897558625 0.7329663231880409 0.0
N N 0.24139852145921822 0.5061129100156545 0.9018303304846779 0.0
C C 0.15483879171544407 0.6433712702729898 0.9442101270375513 0.0
C C 0.0994992052864158 0.6959455905565133 0.9121508988130738 0.0
C C -0.09203112818019979 0.7244986435550467 0.9339551011416682 0.0
H H -0.12624112818019984 0.6997686435550468 0.9712151011416682 0.0
C C 0.1990529464094769 0.2541527877117528 0.5857453805453422 0.0
H H 0.2974629464094769 0.2630227877117528 0.5660053805453421 0.0
C C 0.08687063602747902 0.27701402892444765 0.6487183055949568 0.0
C C -0.046706846430179 0.2846317102255836 0.6969219188677129 0.0
C C 0.15062762626077644 0.7625478709952747 0.8821328355960291 0.0
H H 0.2511176262607765 0.7551178709952747 0.8633928355960292 0.0
C C 0.3137144983995653 0.3479666779130563 0.6829837957967902 0.0
C C 0.005199095746206901 0.3374159495492394 0.7239000898747235 0.0
C C 0.3109391216416278 0.5136682841050677 0.8302434245997284 0.0
H H 0.36645912164162775 0.5494382841050678 0.8200134245997284 0.0
C C 0.19257573735728692 0.4358626885127257 0.7733579923385444 0.0
H H 0.22088573735728695 0.44433268851272567 0.7262179923385446 0.0
C C 0.10118978581344368 0.4068986649836909 0.793293556458942 0.0
C C 0.1535500255337867 0.3801992538321485 0.8440526615572086 0.0
H H 0.0935700255337867 0.34576925383214857 0.8559126615572087 0.0
C C 0.1497043935774401 0.44599891206469244 0.9067013198882854 0.0
H H 0.11795439357744006 0.43937891206469243 0.9537813198882854 0.0
Cd Cd -0.3233540338906422 1.045458388146708 -0.49356725327298695 0.0
O O -0.43264712067292366 0.9625512656397484 -0.5647383483052786 0.0
O O -0.20886897366570595 1.0010173248246048 -0.5823852199093156 0.0
O O -0.9235640263857081 1.2863632626040071 -0.6686752047847322 0.0
O O -0.45741381548638754 1.2549500600356673 -0.7402764758131849 0.0
N N -0.4439849062534646 1.1052231105293864 -0.5442157914276573 0.0
N N -0.6609088777745293 1.268564305675639 -0.6981314859060012 0.0
C C -0.3513802566704526 0.9618767899087364 -0.6008211235912622 0.0
C C -0.2858156882972473 0.9312002273153875 -0.6462299086378314 0.0
C C -0.16701636394530406 0.9304512093143918 -0.6637046258873837 0.0
H H -0.09210636394530407 0.9613112093143921 -0.6510646258873837 0.0
C C -0.11094125228993408 0.8966760645870491 -0.7480313360064421 0.0
H H -0.012031252289934069 0.8972360645870491 -0.769691336006442 0.0
C C -0.22471606731388571 0.8521547212107082 -0.7776955106317933 0.0
C C -0.3795179760371711 0.826403589444134 -0.7128753556940709 0.0
C C -0.42432643969514455 0.8700816997475791 -0.651080001197434 0.0
H H -0.5219364396951447 0.8680516997475791 -0.628550001197434 0.0
C C -0.4973102965958284 1.2744857995203085 -0.7270717734144115 0.0
C C -0.7855517673938036 1.2826089557118314 -0.7103516818763345 0.0
C C -0.545789476579329 1.185399311201193 -0.5446310842316622 0.0
H H -0.574199476579329 1.1826693112011928 -0.49650108423166234 0.0
C C -0.5837638465957578 1.2208118774331356 -0.5867897354591817 0.0
H H -0.6545738465957579 1.2491818774331356 -0.5682497354591816 0.0
C C -0.5373171403934077 1.2209356415082897 -0.6567769633388215 0.0
C C -0.4814650585163107 1.1693928439025227 -0.6706673323248338 0.0
H H -0.45315505851631066 1.169562843902523 -0.7188273323248336 0.0
C C -0.43396138239798293 1.131838482777683 -0.6486916353587452 0.0
H H -0.36047138239798293 1.1033084827776831 -0.6650516353587455 0.0
O O -0.2518396886824251 1.138737972984541 -0.3873276810840778 0.0
O O -0.04846351068912786 1.1395031484745513 -0.4828563270447714 0.0
O O 0.13046179065754418 0.8355974416188898 -0.27880957188919786 0.0
O O -0.3717726456889997 0.8867033206255955 -0.1244431311701303 0.0
N N -0.1735349534963577 0.8730639206261406 -0.24051307691360718 0.0
N N -0.21731505297404377 0.9983668513772596 -0.389762548915008 0.0
C C -0.1339853500695852 1.1608469118403704 -0.44577557094359677 0.0
C C -0.0944098581314441 1.2026908240352645 -0.3953972241706604 0.0
C C 0.1174536924938886 1.2053573718843307 -0.44920402427082773 0.0
H H 0.15166369249388856 1.1806273718843308 -0.48646402427082774 0.0
C C -0.2471234643685653 0.770424305807697 -0.06799637419797835 0.0
H H -0.34553346436856536 0.7792943058076971 -0.048256374197978395 0.0
C C -0.10012375208233736 0.7981347236887752 -0.1488387402588309 0.0
C C -0.007451489390227133 0.7981651986493082 -0.16956888199558706 0.0
C C -0.014519623238632167 1.2319697365664914 -0.36187357753364036 0.0
H H -0.11500962323863216 1.2245397365664916 -0.3431335775336404 0.0
C C -0.17297898684264926 0.8585700640661228 -0.1690061778830273 0.0
C C 0.01185092036677181 0.8469139742514634 -0.20845813619450262 0.0
C C -0.25555250425664244 1.0036650654259607 -0.3668594926217006 0.0
H H -0.3110725042566424 1.0394350654259608 -0.35662949262170063 0.0
C C -0.25356596503060497 0.9661464187977753 -0.277943446395113 0.0
H H -0.2818759650306049 0.9746164187977753 -0.23080344639511302 0.0
C C -0.14288301777233176 0.9047918330940078 -0.29005207788370435 0.0
C C -0.1227970517603829 0.9072801631468002 -0.34266344997780923 0.0
H H -0.0628170517603829 0.8728501631468003 -0.3545234499778092 0.0
C C -0.1703675500926525 0.9618004762337656 -0.4403662941371197 0.0
H H -0.1386175500926525 0.9551804762337656 -0.4874462941371197 0.0
Cd Cd -0.330995585171956 -0.5493735464607299 -0.9860256027534022 0.0
O O -0.39699266161503305 -0.47935758265670486 -1.0524284169804796 0.0
O O -0.24973664963533884 -0.5052564978034872 -1.070919320804115 0.0
O O -0.9973405570075804 -0.7432129013870553 -1.1357927046386103 0.0
O O -0.3092017301049442 -0.7661351801874482 -1.2566463561271697 0.0
N N -0.4337550431493532 -0.6303570417535671 -1.061737360598066 0.0
N N -0.6002977863763873 -0.7360300871804208 -1.1592209972323513 0.0
C C -0.3420737811408557 -0.48189392067567055 -1.0796900805704017 0.0
C C -0.25622731429000944 -0.42662351974994245 -1.1601231285725164 0.0
C C -0.171190868266187 -0.4245375673561692 -1.2063826998198515 0.0
H H -0.09628086826618697 -0.4553975673561692 -1.1937426998198513 0.0
C C -0.09682057024475484 -0.37917236574778795 -1.2157145899382633 0.0
H H 0.0020894297552451796 -0.37973236574778796 -1.2373745899382635 0.0
C C -0.22999093543215307 -0.3467792798138529 -1.2247956396054627 0.0
C C -0.37496113181114343 -0.3283297362977007 -1.2228925166930698 0.0
C C -0.3969101060542447 -0.3914599591985456 -1.1758708423292648 0.0
H H -0.4945201060542448 -0.38942995919854556 -1.1533408423292648 0.0
C C -0.5855015969782472 -0.7688193804893787 -1.2875898434590731 0.0
C C -0.7803925230797025 -0.7949789118273916 -1.1567522753707677 0.0
C C -0.5831630082783692 -0.6611860881287388 -1.0413266673044197 0.0
H H -0.6115730082783692 -0.658456088128739 -0.9931966673044199 0.0
C C -0.6122989265762309 -0.7171631388892306 -1.0983386205398997 0.0
H H -0.6831089265762309 -0.7455331388892305 -1.0797986205399 0.0
C C -0.5527353694777429 -0.7054795232986344 -1.1731364807096105 0.0
C C -0.42301599831645875 -0.6584298191074438 -1.1910015755140124 0.0
H H -0.3947059983164588 -0.6585998191074438 -1.2391615755140126 0.0
C C -0.40061267571334414 -0.6164769333967863 -1.1249710791577872 0.0
H H -0.32712267571334414 -0.5879469333967864 -1.1413310791577873 0.0
O O -0.24843348812106064 -0.6352022935600821 -0.9045264985913977 0.0
O O -0.12175713657601768 -0.6131140455003605 -0.9658384266269212 0.0
O O 0.22192460090572894 -0.32967577823643424 -0.7714638979598505 0.0
O O -0.3816279943624847 -0.3885442783873439 -0.6798310170199421 0.0
N N -0.14687735331273946 -0.38536621454510767 -0.7473993895018827 0.0
N N -0.21771488608767436 -0.5077776376803786 -0.8982864926327873 0.0
C C -0.11380803687942702 -0.6491294674364787 -0.9163240871524607 0.0
C C -0.02803025744762803 -0.6994365224265024 -0.8757148189732066 0.0
C C 0.15549625762111474 -0.7061614619388351 -0.927464280469839 0.0
H H 0.18970625762111476 -0.6814314619388352 -0.9647242804698389 0.0
C C -0.21139517927255613 -0.26564967426350133 -0.600049089987251 0.0
H H -0.30980517927255613 -0.2745196742635014 -0.5803090899872511 0.0
C C -0.20113215747236132 -0.3255967009100561 -0.6264362636792793 0.0
C C 0.05305002234396084 -0.2906019022226883 -0.6377385894685359 0.0
C C -0.06831545217061613 -0.7482484102248168 -0.8676219357498296 0.0
H H -0.16880545217061615 -0.7408184102248168 -0.8488819357498295 0.0
C C -0.21856986360174366 -0.3492294236630111 -0.7101174035741867 0.0
C C 0.0033468752478612645 -0.3715188396064715 -0.7319279909636934 0.0
C C -0.27561189376154654 -0.5200605197800767 -0.8367648951938929 0.0
H H -0.3311318937615465 -0.5558305197800768 -0.8265348951938928 0.0
C C -0.21853529582972053 -0.4504793154229428 -0.7700517173169774 0.0
H H -0.2468452958297205 -0.45894931542294276 -0.7229117173169775 0.0
C C -0.253239254514715 -0.42238307758933297 -0.7812182871919385 0.0
C C -0.1539877134028758 -0.40077167036260253 -0.8694123428578102 0.0
H H -0.09400771340287581 -0.3663416703626025 -0.8812723428578103 0.0
C C -0.14097040960626334 -0.4280529444801914 -0.8901472523901178 0.0
H H -0.10922040960626331 -0.42143294448019136 -0.9372272523901178 0.0
Cd Cd 0.3389776888953074 -1.0408431189599936 0.4741521695431813 0.0
O O 0.42008186168149086 -0.9662845451176512 0.5609912002034739 0.0
O O 0.21318676784527002 -1.0042396447239887 0.580413205236303 0.0
O O 0.9841222417525131 -1.2912865053594527 0.6943441243795039 0.0
O O 0.4544617354456779 -1.2729821365812457 0.7322176469057002 0.0
N N 0.3844079377662698 -1.0998216074936524 0.565837626555232 0.0
N N 0.6580483044768448 -1.2535237538865391 0.7178279287140591 0.0
C C 0.25932127936657096 -0.9625874024846057 0.5715835647939393 0.0
C C 0.2764663035076668 -0.9076543532462833 0.6397251212472169 0.0
C C 0.09995277170645316 -0.950771948393008 0.664402971951691 0.0
H H 0.02504277170645316 -0.9816319483930083 0.651762971951691 0.0
C C 0.10447087043521162 -0.8665998089753753 0.7290027264667251 0.0
H H 0.005560870435211604 -0.8671598089753753 0.7506627264667252 0.0
C C 0.2011600375867521 -0.8400309534126237 0.7530158440137515 0.0
C C 0.2892774484331075 -0.8537705016752319 0.7244864601783283 0.0
C C 0.43081658323925165 -0.8745691212146455 0.6535113742852164 0.0
H H 0.5284265832392517 -0.8725391212146455 0.6309813742852165 0.0
C C 0.5358791305064583 -1.333096975857302 0.7639010353853888 0.0
C C 0.735861434873063 -1.2875035504072356 0.7007726607566439 0.0
C C 0.5240712544964333 -1.1670785222943838 0.5358779693387892 0.0
H H 0.5524812544964335 -1.1643485222943837 0.48774796933878933 0.0
C C 0.5931799265437255 -1.1894883370650453 0.5743688445222913 0.0
H H 0.6639899265437257 -1.2178583370650453 0.5558288445222912 0.0
C C 0.5887618397377712 -1.1945162622717935 0.6437119540969162 0.0
C C 0.4869444628437982 -1.1875417863035114 0.6767077222936503 0.0
H H 0.4586344628437982 -1.1877117863035114 0.7248677222936502 0.0
C C 0.43755990625323565 -1.1336727082201352 0.5911926130694068 0.0
H H 0.36406990625323565 -1.1051427082201353 0.607552613069407 0.0
O O 0.21788635053232727 -1.1432610296884802 0.4085139766039316 0.0
O O 0.054984283998538 -1.1432117173258842 0.4448011320182371 0.0
O O -0.06554475713917793 -0.8016866147430555 0.3017971594913737 0.0
O O 0.2836466113552905 -0.8893435191808577 0.14224047458457678 0.0
N N 0.1174097323339601 -0.863906280058796 0.22281834393694883 0.0
N N 0.22092177732527524 -0.9846640807870698 0.3825108930683204 0.0
C C 0.1708393321869404 -1.1503722269968082 0.45963263380970126 0.0
C C 0.04564269920259589 -1.201531363646824 0.43041154993474506 0.0
C C -0.06532929301527882 -1.2069916693864633 0.43470275265211367 0.0
H H -0.09953929301527882 -1.1822616693864634 0.4719627526521137 0.0
C C 0.18068188808253152 -0.7770038725679224 0.1285642903612134 0.0
H H 0.27909188808253155 -0.7858738725679224 0.10882429036121344 0.0
C C 0.11713621250645849 -0.8216495912643387 0.13484798714402688 0.0
C C -0.034698717473992655 -0.8070114738729777 0.18604934536280032 0.0
C C 0.057893757132433506 -1.2107350127011438 0.3594472332829385 0.0
H H 0.15838375713243352 -1.203305012701144 0.34070723328293856 0.0
C C 0.21985191934027448 -0.875805011603891 0.1796748701496929 0.0
C C -0.00469113687878985 -0.8339772913085995 0.21330679117880075 0.0
C C 0.25859731337046615 -0.9908482281158544 0.32538406679190157 0.0
H H 0.3141173133704662 -1.0266182281158545 0.31515406679190167 0.0
C C 0.21257912459031816 -0.9552424956143629 0.25259947451397013 0.0
H H 0.2408891245903182 -0.9637124956143629 0.20545947451397012 0.0
C C 0.11922538384023058 -0.9056144289886394 0.27932687969089864 0.0
C C 0.10447652936256593 -0.9031992923406301 0.3811383713005215 0.0
H H 0.04449652936256594 -0.8687692923406303 0.39299837130052145 0.0
C C 0.14772190952517075 -0.9253717673743872 0.3945441760462231 0.0
H H 0.11597190952517074 -0.9187517673743871 0.44162417604622306 0.0
_cell_length_a 8.39304
_cell_length_b 22.23511
_cell_length_c 18.74218
_cell_angle_alpha 90.0
_cell_angle_beta 94.0312
_cell_angle_gamma 90.0
_symmetry_space_group_name_H-M         'P 1'
_symmetry_Int_Tables_number            1
loop_
_symmetry_equiv_pos_as_xyz
   'x, y, z'
                         
loop_
_atom_site_label
_atom_site_type_symbol
_atom_site_fract_x 
_atom_site_fract_y
_atom_site_fract_z
_atom_site_charge
Cd Cd 0.33155358886655334 0.5648738926000991 1.0014353903729893 0.0
O O 0.4091152936713502 0.4549663055427963 1.0634642464831918 0.0
O O 0.2578417165187244 0.4926004297234539 1.110655262269157 0.0
O O 0.873121378885401 0.7761946591451351 1.1604464789134072 0.0
O O 0.3997049120231067 0.744087396337939 1.2701511275000554 0.0
N N 0.40642966605175 0.6241633567323188 1.0693771249000101 0.0
N N 0.6303594383768288 0.7594572274685161 1.1868856921178097 0.0
C C 0.31342065537076197 0.4737032349448054 1.0909636973052699 0.0
C C 0.2610460116139986 0.4278656695271756 1.1335269636665848 0.0
C C 0.11502862103418747 0.436203315831377 1.1885896043029271 0.0
H H 0.04011862103418743 0.46706331583137706 1.1759496043029272 0.0
C C 0.07717433377330096 0.37358708016071085 1.2458178733111138 0.0
H H -0.021735666226699056 0.37414708016071085 1.2674778733111138 0.0
C C 0.23119979920000658 0.34529030997950005 1.250989000625789 0.0
C C 0.3419061794062483 0.3377562771705988 1.2175022357751608 0.0
C C 0.34274423665653936 0.37315877986439405 1.143578999543221 0.0
H H 0.4403542366565395 0.3711287798643941 1.121048999543221 0.0
C C 0.6401383890807936 0.772459130908193 1.229754985358584 0.0
C C 0.7586150385721618 0.791281336805246 1.2259798510981632 0.0
C C 0.5365700064079179 0.6623291959638397 1.0551188723409621 0.0
H H 0.5649800064079179 0.6595991959638396 1.0069888723409621 0.0
C C 0.6565982247360281 0.6775326541123873 1.0952516540130415 0.0
H H 0.7274082247360282 0.7059026541123872 1.0767116540130415 0.0
C C 0.5920953317312879 0.7147778880449888 1.134460559295663 0.0
C C 0.4833518331086139 0.620466224173986 1.1909908413606507 0.0
H H 0.45504183310861396 0.620636224173986 1.239150841360651 0.0
C C 0.3669949865739438 0.6342456900862093 1.1191428912114454 0.0
H H 0.2935049865739438 0.6057156900862094 1.1355028912114453 0.0
O O 0.35065791652385997 0.6380770257684605 0.9191625801370329 0.0
O O 0.07141754555337769 0.6125611383744282 1.0003134102693239 0.0
O O -0.1866112172870047 0.3522261842459688 0.7665881823933843 0.0
O O 0.3122918855038319 0.34797613123318516 0.6627403208101962 0.0
N N 0.09496815773806085 0.3324751098182954 0.7557526856581714 0.0
N N 0.21720598452075365 0.47590737905225633 0.871434656068238 0.0
C C 0.16237372779147732 0.662240367548186 0.9456495308376891 0.0
C C 0.05044787959437756 0.7413529317098646 0.9033984334363171 0.0
C C -0.03458001159078585 0.721372059687012 0.9507717586560912 0.0
H H -0.06879001159078586 0.6966420596870121 0.9880317586560912 0.0
C C 0.20396216229391978 0.2715372558370562 0.5742964932723851 0.0
H H 0.3023721622939198 0.2804072558370562 0.5545564932723851 0.0
C C 0.08062164169732358 0.29282999366987356 0.6240727936807013 0.0
C C 0.05879958657737671 0.294691739730335 0.6875294547109191 0.0
C C 0.11028454922516928 0.7451892110339202 0.8535038091892451 0.0
H H 0.2107745492251693 0.7377592110339202 0.8347638091892451 0.0
C C 0.17098319144241808 0.36576496980041423 0.6348378660900147 0.0
C C -0.09125754276732896 0.33077125783773953 0.7488869513038544 0.0
C C 0.2705166102366405 0.5146260255658618 0.8549269792293885 0.0
H H 0.32603661023664043 0.5503960255658619 0.8446969792293886 0.0
C C 0.2136314257713667 0.47475942822286776 0.7622800023130124 0.0
H H 0.2419414257713667 0.48322942822286774 0.7151400023130126 0.0
C C 0.20655865190617093 0.4181922105729274 0.798882623757583 0.0
C C 0.11818493916163716 0.40798338033835635 0.8592096020977784 0.0
H H 0.05820493916163718 0.37355338033835633 0.8710696020977785 0.0
C C 0.14684606626685046 0.4286338388547441 0.9057444400986722 0.0
H H 0.11509606626685043 0.4220138388547441 0.9528244400986722 0.0
Cd Cd -0.31681039596185717 1.0544924127757915 -0.5002165719338696 0.0
O O -0.4529973172627368 0.948347717816314 -0.5722785277300557 0.0
O O -0.25733901203670145 1.0097207888508442 -0.549542514161398 0.0
O O -0.8294653336201051 1.2826593634942258 -0.6506803626622896 0.0
O O -0.43120440665849 1.2482487465164245 -0.7442234425199633 0.0
N N -0.46553346882350105 1.119539335519328 -0.5750656854632274 0.0
N N -0.6054737307838833 1.2533578368865463 -0.7280240026813911 0.0
C C -0.3375617930466071 0.9747203844717764 -0.5941019157305715 0.0
C C -0.32656985494556784 0.9134338132610117 -0.6326567211071462 0.0
C C -0.12117156639504109 0.933889254117465 -0.6869687326873948 0.0
H H -0.0462615663950411 0.9647492541174651 -0.6743287326873948 0.0
C C -0.08383303162937762 0.9054858184613285 -0.7747048804739614 0.0
H H 0.015076968370622404 0.9060458184613285 -0.7963648804739613 0.0
C C -0.22629333492655923 0.839174269517746 -0.7519671099216042 0.0
C C -0.3622053284028144 0.8292673486015233 -0.7096438986089193 0.0
C C -0.3646864678340821 0.8876679944291987 -0.6650948193234903 0.0
H H -0.46229646783408224 0.8856379944291988 -0.6425648193234904 0.0
C C -0.5790852879028061 1.2876980733757124 -0.7474041414942746 0.0
C C -0.816228012827864 1.2769923766563926 -0.6570957765443144 0.0
C C -0.5541106868157221 1.1690782065249754 -0.53799921213604 0.0
H H -0.5825206868157221 1.1663482065249753 -0.4898692121360401 0.0
C C -0.6310391165710094 1.2015691632660828 -0.5979514770359833 0.0
H H -0.7018491165710095 1.2299391632660828 -0.5794114770359832 0.0
C C -0.5530627136997031 1.2173791647480658 -0.6563358450492126 0.0
C C -0.4475394260186024 1.1691533346373308 -0.6924935366026322 0.0
H H -0.41922942601860236 1.169323334637331 -0.7406535366026322 0.0
C C -0.40714580995878663 1.1393472775450664 -0.6179654581772307 0.0
H H -0.3336558099587866 1.1108172775450664 -0.634325458177231 0.0
O O -0.26166446150043715 1.1478894832982345 -0.40575900605987164 0.0
O O -0.09772790514254923 1.1230883882267773 -0.47221366106965457 0.0
O O 0.14566096733611575 0.8652523795808678 -0.23885584788257072 0.0
O O -0.3770779762398983 0.876914703986538 -0.1665774765624013 0.0
N N -0.09341704790797958 0.8912217460546477 -0.2587214403690954 0.0
N N -0.2464082717307017 0.9903797754701926 -0.402565584148204 0.0
C C -0.16310151516852253 1.165510656206072 -0.4321518998051065 0.0
C C -0.07584804998762754 1.1872441072749509 -0.43740337320858635 0.0
C C 0.14761831118315646 1.2109217916052437 -0.434522744924546 0.0
H H 0.1818283111831565 1.1861917916052438 -0.47178274492454597 0.0
C C -0.11908720721510042 0.7858465246697202 -0.09101640950128434 0.0
H H -0.21749720721510044 0.7947165246697202 -0.07127640950128436 0.0
C C -0.18168567448943565 0.7930285461774078 -0.16454799449024746 0.0
C C -0.024814043717904685 0.8106247517968937 -0.17542473733202277 0.0
C C -0.06274383587076528 1.2568609149253183 -0.3710843348955497 0.0
H H -0.1632338358707653 1.2494309149253182 -0.3523443348955497 0.0
C C -0.2222096874962495 0.8473084060908568 -0.20488927174412935 0.0
C C -0.03261482273291445 0.8329355839492274 -0.22278781768531833 0.0
C C -0.2728806422396454 0.9912395871580723 -0.3158236297005905 0.0
H H -0.3284006422396454 1.0270095871580724 -0.3055936297005906 0.0
C C -0.2017736375958133 0.9465742129498951 -0.24373842031771353 0.0
H H -0.23008363759581332 0.955044212949895 -0.19659842031771355 0.0
C C -0.1729749067401441 0.912849621299257 -0.30371883014844425 0.0
C C -0.07480377569165231 0.8953860356063819 -0.3332108543223076 0.0
H H -0.014823775691652316 0.8609560356063819 -0.34507085432230766 0.0
C C -0.15902668331086228 0.9640210178778615 -0.41536322228372247 0.0
H H -0.12727668331086228 0.9574010178778615 -0.4624432222837224 0.0
Cd Cd -0.24887633923789984 -0.5476312713364883 -0.9607185351396216 0.0
O O -0.4159451693293831 -0.46253431660966654 -1.0666715117220549 0.0
O O -0.24107779491596076 -0.5011482835106631 -1.079685684668482 0.0
O O -0.9206748889393519 -0.7701547559722185 -1.1098645251773356 0.0
O O -0.3725262267952841 -0.7795027917154301 -1.2850674203454984 0.0
N N -0.4910140432956146 -0.6163472196808796 -1.0522167426733555 0.0
N N -0.6270454728860623 -0.7366974790453469 -1.2113819900744567 0.0
C C -0.36695121286236104 -0.47855833418714655 -1.0848866092476261 0.0
C C -0.2851222070559895 -0.41462904540578677 -1.1701428978022634 0.0
C C -0.0945572518172105 -0.4279392284436466 -1.2025250261760554 0.0
H H -0.01964725181721047 -0.4587992284436466 -1.1898850261760554 0.0
C C -0.0799461502467205 -0.3619877666703886 -1.1835700831660174 0.0
H H 0.018963849753279537 -0.3625477666703886 -1.2052300831660174 0.0
C C -0.228830003472666 -0.32994101180582064 -1.2445600783832533 0.0
C C -0.3755324308408075 -0.3098667958953346 -1.2132989768559503 0.0
C C -0.36648007875758154 -0.38633241500301196 -1.169763921441684 0.0
H H -0.4640900787575817 -0.384302415003012 -1.147233921441684 0.0
C C -0.5696556999171938 -0.7723184297595636 -1.2518084563776253 0.0
C C -0.7576385079858581 -0.8076301443274618 -1.1844933136274398 0.0
C C -0.5735726711414293 -0.6699451193613034 -1.0501277096373398 0.0
H H -0.6019826711414293 -0.6672151193613035 -1.0019977096373398 0.0
C C -0.6047034161726749 -0.7066216864402014 -1.0880810962480603 0.0
H H -0.6755134161726749 -0.7349916864402013 -1.0695410962480603 0.0
C C -0.5708186566012559 -0.7266728255008277 -1.1569823318842865 0.0
C C -0.4904750995427523 -0.6885093141784336 -1.1952479074488491 0.0
H H -0.46216509954275237 -0.6886793141784336 -1.243407907448849 0.0
C C -0.46024782762664834 -0.6283387260346582 -1.1389219947164861 0.0
H H -0.38675782762664834 -0.5998087260346583 -1.155281994716486 0.0
O O -0.2573339887199725 -0.6199450929936484 -0.9095099374579508 0.0
O O -0.0819894177867508 -0.6368419275577294 -0.9938278198937851 0.0
O O 0.15025946182713437 -0.32195261120030616 -0.7312516073889945 0.0
O O -0.3076650897919794 -0.37280426019734575 -0.7160468814844858 0.0
N N -0.09718134660457116 -0.35557031473230055 -0.7377971005991482 0.0
N N -0.2708593471368118 -0.5078367130726666 -0.9158446557007128 0.0
C C -0.07697064501426369 -0.6647881280196127 -0.9231784201689464 0.0
C C -0.062315405635964265 -0.6973437728087346 -0.8874858663648372 0.0
C C 0.13927719112622092 -0.7088611365386756 -0.9238720519960255 0.0
H H 0.17348719112622094 -0.6841311365386756 -0.9611320519960255 0.0
C C -0.22736568217438316 -0.26199197189954204 -0.5942009788091229 0.0
H H -0.3257756821743832 -0.27086197189954203 -0.5744609788091228 0.0
C C -0.07835544573504218 -0.31297510622608044 -0.6730912600481395 0.0
C C 0.022746251270719917 -0.2733432087608418 -0.6705248127693826 0.0
C C -0.09211179252409211 -0.7320257988042729 -0.8397019605920849 0.0
H H -0.19260179252409215 -0.7245957988042728 -0.820961960592085 0.0
C C -0.18483119640686535 -0.30949386641909266 -0.714296207186587 0.0
C C 0.05381316176385519 -0.3270338059543803 -0.7581409497381557 0.0
C C -0.29944084516670694 -0.5090640002075932 -0.8476973933729859 0.0
H H -0.3549608451667069 -0.5448340002075933 -0.8374673933729859 0.0
C C -0.2393497252215332 -0.4743269987999076 -0.7643605063070861 0.0
H H -0.2676597252215332 -0.48279699879990756 -0.7172205063070861 0.0
C C -0.21134785354584937 -0.3976981345236014 -0.8052506497834063 0.0
C C -0.08422754757530505 -0.39478756059491144 -0.8744490524874045 0.0
H H -0.02424754757530506 -0.3603575605949114 -0.8863090524874045 0.0
C C -0.17034539022739711 -0.43870248873476336 -0.898184058404289 0.0
H H -0.1385953902273971 -0.43208248873476335 -0.9452640584042891 0.0
Cd Cd 0.3513488501373147 -1.060580645153821 0.49160958854721254 0.0
O O 0.3968681713076537 -0.965512990564247 0.5443992691776071 0.0
O O 0.23726703043183459 -1.012858166415539 0.6076659597245778 0.0
O O 0.9227246836047587 -1.2871089673957303 0.6276509594168049 0.0
O O 0.40108369243208425 -1.2630209026475354 0.7362043495181663 0.0
N N 0.45029105815663995 -1.0907661438465597 0.5831773500424888 0.0
N N 0.6956627744894569 -1.2547822322776905 0.6877623258764587 0.0
C C 0.3202077703437569 -0.9668026347083013 0.5912176350814868 0.0
C C 0.24645273845943738 -0.9249314090505294 0.6662445438412125 0.0
C C 0.11256687356553785 -0.8890316000111511 0.6720211272221197 0.0
H H 0.03765687356553786 -0.9198916000111513 0.6593811272221197 0.0
C C 0.09082598593662174 -0.8821391643961578 0.740211908984397 0.0
H H -0.008084014063378274 -0.8826991643961578 0.761871908984397 0.0
C C 0.22168620828788826 -0.8014289809540789 0.727078713278424 0.0
C C 0.34878271838055047 -0.8352353439261183 0.7450197415606609 0.0
C C 0.4072720079675606 -0.8665234971730742 0.6687063738056273 0.0
H H 0.5048820079675607 -0.8644934971730742 0.6461763738056273 0.0
C C 0.5357323193054879 -1.2634451477269204 0.7172339944237338 0.0
C C 0.8130825324391548 -1.2750272099241469 0.7252034978750753 0.0
C C 0.5219434165272814 -1.1650355397503978 0.5578420065787316 0.0
H H 0.5503534165272814 -1.1623055397503976 0.5097120065787317 0.0
C C 0.5948113062484431 -1.1996828050056776 0.5819252073214104 0.0
H H 0.6656213062484433 -1.2280528050056776 0.5633852073214104 0.0
C C 0.6135667359682405 -1.2118196680529763 0.6837519149143478 0.0
C C 0.4327030470839876 -1.1359319848793252 0.6662426844294846 0.0
H H 0.4043930470839876 -1.1361019848793255 0.7144026844294846 0.0
C C 0.410768796457248 -1.101167590989883 0.6499419515320851 0.0
H H 0.337278796457248 -1.072637590989883 0.6663019515320854 0.0
O O 0.27040166236596946 -1.1474324536940108 0.40112520764938214 0.0
O O 0.04694810540276505 -1.1496867251604252 0.5020923932107897 0.0
O O -0.09566847328949238 -0.8096623060006775 0.24080122465476955 0.0
O O 0.3557074923843993 -0.8634404100056513 0.16691477976903538 0.0
N N 0.08751909134871083 -0.8715269528591633 0.21880908685491812 0.0
N N 0.2505402965769687 -0.9887706158389428 0.39976745729565777 0.0
C C 0.1527068015856115 -1.1438185921722257 0.4274604174149401 0.0
C C 0.11057945700971422 -1.2164273430893404 0.40708388165389015 0.0
C C -0.11943041737696242 -1.215537884413389 0.4233884923925973 0.0
H H -0.1536404173769624 -1.190807884413389 0.4606484923925973 0.0
C C 0.1625028959153681 -0.7522735357177849 0.11648040535553975 0.0
H H 0.26091289591536815 -0.7611435357177849 0.09674040535553977 0.0
C C 0.06925756520548493 -0.8114362574260489 0.1547472340648147 0.0
C C 0.021917264032453834 -0.7609891614347299 0.1713299129065555 0.0
C C 0.08898969446900958 -1.2547193980140938 0.3515945113642259 0.0
H H 0.18947969446900959 -1.247289398014094 0.33285451136422595 0.0
C C 0.22438547745168244 -0.8247735625256634 0.19702645236934108 0.0
C C 0.009895862666462689 -0.8365763186214177 0.2401398444525372 0.0
C C 0.2585112138192066 -0.994117750267474 0.33949872393181263 0.0
H H 0.31403121381920657 -1.029887750267474 0.3292687239318127 0.0
C C 0.3171958883421716 -0.9379557366887518 0.28531155270209807 0.0
H H 0.3455058883421716 -0.9464257366887517 0.23817155270209808 0.0
C C 0.09472031603563755 -0.9088590088332995 0.25003360198771585 0.0
C C 0.17601623224534307 -0.896214939411621 0.3578879509361943 0.0
H H 0.11603623224534307 -0.861784939411621 0.3697479509361943 0.0
C C 0.12289973753529365 -0.9620417919717639 0.3995009575789239 0.0
H H 0.09114973753529365 -0.9554217919717638 0.44658095757892385 0.0
