_cell_length_a 8.39304
_cell_length_b 22.23511
_cell_length_c 18.74218
_cell_angle_alpha 90.0
_cell_angle_beta 94.0312
_cell_angle_gamma 90.0
_symmetry_space_group_name_H-M         'P 1'
_symmetry_Int_Tables_number            1
loop_
_symmetry_equiv_pos_as_xyz
   'x, y, z'
                         
loop_
_atom_site_label
_atom_site_type_symbol
_atom_site_fract_x 
_atom_site_fract_y
_atom_site_fract_z
_atom_site_charge
Cd Cd 0.31085739941683266 0.5678989090006622 0.9741396369497058 0.0
O O 0.4142087150614747 0.45720920810096805 1.0699524477079676 0.0
O O 0.21302520780588152 0.5198199596177617 1.0559804604671632 0.0
O O 0.8592006509249096 0.7797061579466898 1.1342741180847271 0.0
O O 0.4451280197412231 0.7724429918727158 1.2324849986144815 0.0
N N 0.4225007987624905 0.6035006287953503 1.0615240045578764 0.0
N N 0.6656057575231757 0.7744372390881413 1.200672268427245 0.0
C C 0.29029508380741315 0.4484943443315558 1.0915930601869732 0.0
C C 0.27429652064858606 0.43599631708470266 1.1379956098726804 0.0
C C 0.1205584943521317 0.4362143674279064 1.1850830199244364 0.0
H H 0.04564849435213165 0.4670743674279064 1.1724430199244362 0.0
C C 0.1006502377784619 0.368515278923101 1.2329985975962814 0.0
H H 0.0017402377784618722 0.369075278923101 1.2546585975962816 0.0
C C 0.3037573029276068 0.3130598377677355 1.2164399203029599 0.0
C C 0.4147496664871521 0.3265567003840022 1.2172361110943999 0.0
C C 0.3686073557418356 0.392559018244696 1.1764688568938493 0.0
H H 0.46621735574183576 0.39052901824469605 1.1539388568938491 0.0
C C 0.5504169089694326 0.7847974445848327 1.2458235449244384 0.0
C C 0.8572649834028111 0.7743180232293363 1.170662407869271 0.0
C C 0.5643833496316276 0.646515801829593 1.028582173153696 0.0
H H 0.5927933496316277 0.6437858018295931 0.980452173153696 0.0
C C 0.6629475712799551 0.7013142923529657 1.089635106901883 0.0
H H 0.733757571279955 0.7296842923529655 1.071095106901883 0.0
C C 0.6039135195161207 0.7101058794311123 1.1526460676092396 0.0
C C 0.4112639980107471 0.6811703785267523 1.1879291956217224 0.0
H H 0.38295399801074714 0.6813403785267523 1.2360891956217226 0.0
C C 0.4368369351378213 0.6388547781008929 1.1163480042424119 0.0
H H 0.3633469351378213 0.6103247781008929 1.1327080042424118 0.0
O O 0.27350465037431476 0.6377921929386408 0.9043837957766347 0.0
O O 0.09920782797844957 0.6382528799718241 0.9604878740305175 0.0
O O -0.11560111713452474 0.35831280452101616 0.7478906617266347 0.0
O O 0.3589937262684283 0.340822855250337 0.6769408314587568 0.0
N N 0.15832264283391045 0.3730736256005174 0.761699774880461 0.0
N N 0.24063306467523693 0.49708052556462456 0.8796434230739486 0.0
C C 0.14051244439623917 0.6689489141258309 0.9123963444033815 0.0
C C 0.08262527704199522 0.7110655181977528 0.9032292193564598 0.0
C C -0.10816966200181904 0.7366382158822243 0.9291904699116074 0.0
H H -0.14237966200181906 0.7119082158822244 0.9664504699116072 0.0
C C 0.19930630129787932 0.2614593436921584 0.5946399870104483 0.0
H H 0.29771630129787935 0.2703293436921584 0.5748999870104483 0.0
C C 0.17588589737232802 0.3035891030260082 0.6396664489106568 0.0
C C -0.055312929403239404 0.3007680626618915 0.653110459823511 0.0
C C 0.1782951557848077 0.7133490075247909 0.8243198497520179 0.0
H H 0.2787851557848078 0.705919007524791 0.8055798497520179 0.0
C C 0.257792131006892 0.39302613916935325 0.660547546234103 0.0
C C -0.025750932809013603 0.3188157006731694 0.7216203561654174 0.0
C C 0.2676655376883386 0.5115965215014496 0.8414332886788657 0.0
H H 0.3231855376883386 0.5473665215014497 0.8312032886788657 0.0
C C 0.21742919233359276 0.46453406209065756 0.7726709357476557 0.0
H H 0.24573919233359273 0.47300406209065754 0.7255309357476558 0.0
C C 0.10747137550841394 0.38825851896326696 0.8061586821915651 0.0
C C 0.10523725560327012 0.40897088594524295 0.8648629257613468 0.0
H H 0.04525725560327013 0.37454088594524293 0.8767229257613469 0.0
C C 0.14476822419197546 0.4323683466439205 0.9084552432469375 0.0
H H 0.11301822419197544 0.4257483466439204 0.9555352432469375 0.0
Cd Cd -0.33035436842910215 1.068123911072172 -0.5074932381444435 0.0
O O -0.4518877817106757 0.9698059987138584 -0.5687683780818196 0.0
O O -0.26063203619929926 1.0213750530570884 -0.5812166056669754 0.0
O O -0.8554204461546521 1.320748012061208 -0.6697251072491708 0.0
O O -0.49208592967946857 1.2884467743320243 -0.7940656538807054 0.0
N N -0.48990845135132177 1.1188189502294805 -0.5780661304133204 0.0
N N -0.6697274135760979 1.285026717431257 -0.6926070876920475 0.0
C C -0.2616138405334644 0.9647032112283003 -0.5921381955818737 0.0
C C -0.25753790221644945 0.9196111489204627 -0.6198061402750098 0.0
C C -0.14792095306798178 0.9059482608298953 -0.7027731821272029 0.0
H H -0.0730109530679818 0.9368082608298955 -0.6901331821272029 0.0
C C -0.07428792937622426 0.8753700550963643 -0.6818712506392937 0.0
H H 0.02462207062377575 0.8759300550963643 -0.7035312506392937 0.0
C C -0.2357570687124649 0.8397805119763302 -0.7443616107162373 0.0
C C -0.33961373714159954 0.7998171733100956 -0.7166769980097374 0.0
C C -0.4137917923552937 0.8924242337053971 -0.6363770218105887 0.0
H H -0.5114017923552937 0.8903942337053972 -0.6138470218105887 0.0
C C -0.5201242287798001 1.307183925859024 -0.7654547557705854 0.0
C C -0.816389724735826 1.2943099833501908 -0.726531931775971 0.0
C C -0.5610717742750365 1.1706884797859731 -0.5083505738390022 0.0
H H -0.5894817742750366 1.167958479785973 -0.4602205738390023 0.0
C C -0.6055067002120501 1.2160041125423464 -0.5663058665021218 0.0
H H -0.6763167002120503 1.2443741125423464 -0.5477658665021217 0.0
C C -0.6003742581066143 1.196272898860224 -0.6372653175467915 0.0
C C -0.5423638333014398 1.1746791851184346 -0.7077505881503676 0.0
H H -0.5140538333014397 1.1748491851184348 -0.7559105881503676 0.0
C C -0.479274997756211 1.1203350607239224 -0.6274058250113218 0.0
H H -0.40578499775621096 1.0918050607239225 -0.643765825011322 0.0
O O -0.2627691735059194 1.1507237523918525 -0.4375027388993 0.0
O O -0.1336416429646413 1.1286155364461599 -0.5125628592568207 0.0
O O 0.1255220638602792 0.8178868945550348 -0.2551473190305139 0.0
O O -0.4095670779972237 0.9094549634414119 -0.1656545638412701 0.0
N N -0.17662937066074139 0.8950991183717544 -0.24370102283620554 0.0
N N -0.21436248242268618 0.9747103602690845 -0.3997290879292207 0.0
C C -0.09873419476366001 1.1534541654858599 -0.4267920458297735 0.0
C C -0.11060142498473255 1.2030332651173252 -0.42042993610918017 0.0
C C 0.0826312819267864 1.2173703792350812 -0.4272677333313195 0.0
H H 0.11684128192678639 1.1926403792350813 -0.4645277333313195 0.0
C C -0.16439613999364058 0.7711969166294803 -0.08444136464968198 0.0
H H -0.26280613999364055 0.7800669166294804 -0.064701364649682 0.0
C C -0.11426128418527398 0.8012221432170908 -0.14210408984266137 0.0
C C 0.01430283497117668 0.7756682497357154 -0.15909502889868574 0.0
C C -0.07603405962325352 1.2325666315450983 -0.343716183837556 0.0
H H -0.17652405962325354 1.2251366315450984 -0.32497618383755605 0.0
C C -0.15427356683372542 0.8719052171290034 -0.1796006714922826 0.0
C C 0.041870884962533966 0.8381041764902611 -0.23871787726911126 0.0
C C -0.21593429274573442 0.9963075999348233 -0.3289453745783807 0.0
H H -0.2714542927457344 1.0320775999348235 -0.3187153745783808 0.0
C C -0.2725773722648663 0.9628753083845737 -0.2955884487134991 0.0
H H -0.30088737226486634 0.9713453083845737 -0.2484484487134991 0.0
C C -0.14336673964123958 0.8949364725006268 -0.2633973752384265 0.0
C C -0.094511654153861 0.9052862978781635 -0.3580912189655243 0.0
H H -0.034531654153860995 0.8708562978781635 -0.36995121896552435 0.0
C C -0.17109710135683276 0.9563310221682672 -0.424254037321901 0.0
H H -0.13934710135683276 0.9497110221682672 -0.47133403732190093 0.0
Cd Cd -0.3351624896218257 -0.5682661332504713 -0.9718219120374144 0.0
O O -0.4401114835620991 -0.4637925365309203 -1.065573386698714 0.0
O O -0.14414081814205135 -0.5061122912328296 -1.109568005006962 0.0
O O -0.902197611134236 -0.7870860729939495 -1.1322481898783892 0.0
O O -0.41017240786354003 -0.7640243620484082 -1.2666912570908806 0.0
N N -0.4806420246835766 -0.625258291921328 -1.0795852274402817 0.0
N N -0.5583482846422898 -0.762724637089978 -1.2021993668389273 0.0
C C -0.27985220324551446 -0.464870775682578 -1.0972694619370114 0.0
C C -0.27499346959954696 -0.41679675669343963 -1.127526642136542 0.0
C C -0.19763176984288064 -0.42526623552193543 -1.117441722458057 0.0
H H -0.12272176984288061 -0.45612623552193543 -1.1048017224580569 0.0
C C -0.051499789945295533 -0.4138229745301553 -1.2409537760488383 0.0
H H 0.04741021005470443 -0.4143829745301553 -1.2626137760488385 0.0
C C -0.20549362255830597 -0.33083834730264416 -1.2287996164645978 0.0
C C -0.30078983440766255 -0.31930054395435814 -1.2259944442456245 0.0
C C -0.3781607552949396 -0.3770469560013978 -1.1848229652678661 0.0
H H -0.4757707552949397 -0.37501695600139784 -1.162292965267866 0.0
C C -0.5375495379277486 -0.7895790949453908 -1.2458704933314018 0.0
C C -0.7938270028892546 -0.7975644712567735 -1.1872744653881806 0.0
C C -0.5187182625282776 -0.6507270756198107 -1.0660783775461702 0.0
H H -0.5471282625282776 -0.6479970756198107 -1.0179483775461704 0.0
C C -0.6455945159319053 -0.696602346777573 -1.084712196698764 0.0
H H -0.7164045159319055 -0.7249723467775728 -1.066172196698764 0.0
C C -0.5870651883399017 -0.7013876232792771 -1.1263327588993624 0.0
C C -0.47493918138724606 -0.672221034138494 -1.157479690664265 0.0
H H -0.4466291813872461 -0.672391034138494 -1.205639690664265 0.0
C C -0.4317099914542992 -0.5965982298684492 -1.160306810272714 0.0
H H -0.35821999145429917 -0.5680682298684493 -1.176666810272714 0.0
O O -0.26175159609484805 -0.6251668540622277 -0.9257184042990751 0.0
O O -0.051663713403380704 -0.6367582508539552 -0.9538395797368345 0.0
O O 0.164337021769559 -0.3506379413216438 -0.8217889731675776 0.0
O O -0.29069583566598345 -0.37579020100933247 -0.6965620651416339 0.0
N N -0.07906524199144202 -0.36900261011439456 -0.7349546818834221 0.0
N N -0.22208612784790843 -0.47973653270189265 -0.9039025263009 0.0
C C -0.1291606605443547 -0.6679541282609881 -0.9355527467211834 0.0
C C 0.013466936788927039 -0.7029081696323433 -0.9009101098585267 0.0
C C 0.18779885797827217 -0.7119388524593634 -0.9380670130127035 0.0
H H 0.2220088579782722 -0.6872088524593635 -0.9753270130127034 0.0
C C -0.1879552710494912 -0.2484940607135036 -0.59587024754287 0.0
H H -0.2863652710494912 -0.2573640607135036 -0.57613024754287 0.0
C C -0.11180072947398224 -0.29489572776996387 -0.6513114790102879 0.0
C C 0.053296463572560675 -0.29079607996730467 -0.6642678190125271 0.0
C C -0.09456131986340938 -0.744357709966063 -0.8611527875748534 0.0
H H -0.19505131986340943 -0.7369277099660629 -0.8424127875748535 0.0
C C -0.21957897895960019 -0.35593271285650285 -0.6753570010567245 0.0
C C 0.04157773105159254 -0.34408280866295876 -0.7307502255115754 0.0
C C -0.274674285505115 -0.5044927971707595 -0.8448155122501796 0.0
H H -0.33019428550511504 -0.5402627971707595 -0.8345855122501796 0.0
C C -0.24985796975002386 -0.46028095210021647 -0.7621379928221091 0.0
H H -0.27816796975002384 -0.46875095210021644 -0.7149979928221092 0.0
C C -0.11664993279073504 -0.4424893592131052 -0.7777263243463852 0.0
C C -0.0833672440967707 -0.3984533250470569 -0.8598454945857199 0.0
H H -0.023387244096770725 -0.3640233250470569 -0.87170549458572 0.0
C C -0.09336915440364128 -0.4413634141253728 -0.9075350698030193 0.0
H H -0.061619154403641276 -0.43474341412537276 -0.9546150698030194 0.0
Cd Cd 0.34424652830322905 -1.0694493636862485 0.5069766228915549 0.0
O O 0.4420501864211317 -0.9337597300066455 0.5823427037579789 0.0
O O 0.20405640877227518 -1.0000395543364102 0.5780016288851251 0.0
O O 0.8601236796074166 -1.2756970619568917 0.6684439030543915 0.0
O O 0.4448436920694327 -1.249428460981595 0.7640712028094728 0.0
N N 0.43287301025774366 -1.1227546903879035 0.5725792591531805 0.0
N N 0.5890482795794881 -1.2575003302327112 0.697186207663236 0.0
C C 0.31187762603821084 -0.9709564499620131 0.5742016645337352 0.0
C C 0.27609104037729826 -0.9291233005138325 0.6206918472559326 0.0
C C 0.1900762785044765 -0.905037803093998 0.6937921943862001 0.0
H H 0.1151662785044765 -0.9358978030939982 0.6811521943862001 0.0
C C 0.16345097337217648 -0.8923335735058286 0.7707529682134846 0.0
H H 0.06454097337217647 -0.8928935735058287 0.7924129682134846 0.0
C C 0.26108202411217796 -0.8352147093458177 0.7512778281191431 0.0
C C 0.3431649701061479 -0.8381815109973496 0.6976689243413279 0.0
C C 0.3974317983343519 -0.884258184004388 0.6777451581877834 0.0
H H 0.49504179833435197 -0.8822281840043881 0.6552151581877834 0.0
C C 0.5317062805507667 -1.2892853018483965 0.7581038089045512 0.0
C C 0.8177366477896506 -1.2651479489932722 0.7214326427719063 0.0
C C 0.534748670814992 -1.1754133427550952 0.5157242776746555 0.0
H H 0.5631586708149922 -1.1726833427550951 0.46759427767465556 0.0
C C 0.6410384620037022 -1.1948837594537394 0.6045263972524557 0.0
H H 0.7118484620037023 -1.2232537594537394 0.5859863972524557 0.0
C C 0.576533664819696 -1.2084676179020026 0.6723111714783588 0.0
C C 0.5249400104125959 -1.181485969624158 0.6861063963283213 0.0
H H 0.4966300104125958 -1.181655969624158 0.7342663963283212 0.0
C C 0.4270606009903378 -1.1313737851949393 0.6378242124883442 0.0
H H 0.3535706009903378 -1.1028437851949393 0.6541842124883445 0.0
O O 0.1957693204746852 -1.150872632347094 0.4280916655137191 0.0
O O 0.0892240378590363 -1.108467735177234 0.49545594959041545 0.0
O O -0.15579246057483082 -0.8393697285581125 0.2532461520244554 0.0
O O 0.3969185048764746 -0.8895328961456341 0.17209436601922629 0.0
N N 0.14552565818215005 -0.8487974166689805 0.24322536957922009 0.0
N N 0.23078712379754704 -0.9984712204144511 0.38262530253403215 0.0
C C 0.1466303665052778 -1.1576286814476422 0.4278220382630746 0.0
C C -0.053139261178911545 -1.2202812248923767 0.41929309254492764 0.0
C C -0.07564718557104913 -1.2091670552921687 0.46814432363039377 0.0
H H -0.10985718557104909 -1.1844370552921688 0.5054043236303938 0.0
C C 0.2620878162271596 -0.7593827451977831 0.10483942324075751 0.0
H H 0.3604978162271596 -0.7682527451977832 0.08509942324075753 0.0
C C 0.1656847905325551 -0.8014303332226188 0.13511705294743537 0.0
C C -0.07950115626283139 -0.7694603383753292 0.17124953216099084 0.0
C C 0.06195908743398655 -1.254817374220437 0.3520357943931643 0.0
H H 0.16244908743398656 -1.247387374220437 0.3332957943931643 0.0
C C 0.2251670308636519 -0.8593371049414734 0.2063411665217329 0.0
C C -0.039048557979454286 -0.8226868564213201 0.2111611095292476 0.0
C C 0.2869399515983172 -0.9820686440462925 0.33378140302820253 0.0
H H 0.34245995159831716 -1.0178386440462925 0.32355140302820257 0.0
C C 0.2291307559031697 -0.9712138916784524 0.2715903028804877 0.0
H H 0.2574407559031697 -0.9796838916784524 0.22445030288048773 0.0
C C 0.1867701882629618 -0.9114710674454835 0.2796079039252733 0.0
C C 0.14567487815686916 -0.8785708532635718 0.34934153030321063 0.0
H H 0.08569487815686916 -0.8441408532635719 0.36120153030321067 0.0
C C 0.18300378181311155 -0.9456743701828321 0.3943506698037106 0.0
H H 0.15125378181311155 -0.9390543701828321 0.4414306698037106 0.0
_cell_length_a 8.39304
_cell_length_b 22.23511
_cell_length_c 18.74218
_cell_angle_alpha 90.0
_cell_angle_beta 94.0312
_cell_angle_gamma 90.0
_symmetry_space_group_name_H-M         'P 1'
_symmetry_Int_Tables_number            1
loop_
_symmetry_equiv_pos_as_xyz
   'x, y, z'
                         
loop_
_atom_site_label
_atom_site_type_symbol
_atom_site_fract_x 
_atom_site_fract_y
_atom_site_fract_z
_atom_site_charge
Cd Cd 0.35521745542718336 0.562369391137201 0.9793677487671135 0.0
O O 0.44609490853034034 0.47080131902096206 1.0400949109007722 0.0
O O 0.18557535582066392 0.5057646523375979 1.0646796553859428 0.0
O O 0.8697126761882256 0.783446777585818 1.1683958095689306 0.0
O O 0.41039275249121104 0.7275627697267146 1.279562071564157 0.0
N N 0.4544337669014369 0.6319135280318132 1.0707042808251135 0.0
N N 0.6662552316358793 0.7518780016490166 1.1966813305836723 0.0
C C 0.3412444710804041 0.4510207020690553 1.095498599834382 0.0
C C 0.29839426628522797 0.443912549977069 1.15753966263282 0.0
C C 0.1871781699674322 0.44090183074882183 1.1892579494834392 0.0
H H 0.11226816996743215 0.4717618307488219 1.1766179494834392 0.0
C C 0.081184759813587 0.3812493393382568 1.2143421296129095 0.0
H H -0.01772524018641302 0.3818093393382568 1.2360021296129096 0.0
C C 0.15646092343773926 0.3214243192626398 1.23616373795402 0.0
C C 0.35791861409596554 0.33594519201222645 1.2245044990121514 0.0
C C 0.33544302589461317 0.3785132089439322 1.1689081701674557 0.0
H H 0.43305302589461325 0.3764832089439322 1.1463781701674558 0.0
C C 0.4770237440284239 0.7943704018652001 1.210887169195424 0.0
C C 0.7784832699284518 0.8078158917969973 1.1953377164468706 0.0
C C 0.5317503490052872 0.6582859048174271 1.0322693828122766 0.0
H H 0.5601603490052872 0.6555559048174273 0.9841393828122768 0.0
C C 0.5800517491553635 0.6950876514418721 1.0752927948366393 0.0
H H 0.6508617491553635 0.7234576514418719 1.0567527948366393 0.0
C C 0.568126254910013 0.7026945396705885 1.140134422766047 0.0
C C 0.43679285980711796 0.6828705710407822 1.1906416576566385 0.0
H H 0.408482859807118 0.6830405710407822 1.2388016576566387 0.0
C C 0.3539639097186191 0.6341279094753847 1.115140077646838 0.0
H H 0.2804739097186191 0.6055979094753847 1.1315000776468382 0.0
O O 0.22760907628224025 0.6433194136494662 0.9240151737412269 0.0
O O 0.07278907995875449 0.618501316202393 0.9841610196521577 0.0
O O -0.13675628085342262 0.32668207856581316 0.7580111293799057 0.0
O O 0.34570652787657563 0.3935707106022765 0.7039656440827461 0.0
N N 0.06260315622547047 0.36223620083710445 0.7252156451471236 0.0
N N 0.2364581828346313 0.4944366130316918 0.8808637360719394 0.0
C C 0.21855095412582687 0.6519881561538816 0.9661970317347606 0.0
C C -0.012233817734326705 0.7287326231875536 0.8965598591852048 0.0
C C -0.15387354285217497 0.7278746068139096 0.9439441450223276 0.0
H H -0.18808354285217496 0.7031446068139096 0.9812041450223274 0.0
C C 0.18457169456706682 0.24881243668586622 0.6194017087364798 0.0
H H 0.2829816945670668 0.2576824366858662 0.5996617087364798 0.0
C C 0.1277337047810314 0.29995939544029593 0.6129958623006253 0.0
C C -0.054617679143011015 0.3020705315034134 0.6663696155779639 0.0
C C 0.07668163209949667 0.7201617289433984 0.8410405597614233 0.0
H H 0.1771716320994967 0.7127317289433982 0.8223005597614234 0.0
C C 0.2022654029789374 0.35649564377188636 0.6699050649076934 0.0
C C -0.07326632809747156 0.3342389793293502 0.7556001798814188 0.0
C C 0.27751240300968344 0.49789801100449516 0.8259525945159265 0.0
H H 0.3330324030096834 0.5336680110044952 0.8157225945159265 0.0
C C 0.2023600428613726 0.4814072554267391 0.7586704872797854 0.0
H H 0.2306700428613726 0.4898772554267391 0.7115304872797855 0.0
C C 0.17960638055028652 0.4142964200955001 0.7648164288375437 0.0
C C 0.10299202957405927 0.40898610955285686 0.8563009231827375 0.0
H H 0.0430120295740593 0.37455610955285684 0.8681609231827377 0.0
C C 0.1808550275975681 0.44586486047447266 0.9027950422855622 0.0
H H 0.1491050275975681 0.4392448604744726 0.9498750422855622 0.0
Cd Cd -0.29276926994519153 1.055363058267585 -0.48871453752792726 0.0
O O -0.4037299362245271 0.9697098676922116 -0.526366197195238 0.0
O O -0.1992386075137743 1.0134231507361924 -0.5766284137108751 0.0
O O -0.916251663242894 1.2660892453622503 -0.666465934833605 0.0
O O -0.36913693445295953 1.2967976839176056 -0.8020206321269842 0.0
N N -0.4489394251403744 1.1253921237649203 -0.5518059724514148 0.0
N N -0.613253025444378 1.2339559297017144 -0.6995936217134534 0.0
C C -0.2912640166035236 0.9756520580309964 -0.600293003680984 0.0
C C -0.2488351811205015 0.9137550107796718 -0.6152840431600475 0.0
C C -0.07527568314340258 0.9252716201126443 -0.6882182525013648 0.0
H H -0.0003656831434025855 0.9561316201126445 -0.6755782525013648 0.0
C C -0.14396962781201494 0.8938328934356475 -0.6980730896996761 0.0
H H -0.045059627812014905 0.8943928934356475 -0.719733089699676 0.0
C C -0.1563457349648042 0.8173020239861492 -0.749208566228641 0.0
C C -0.36995316025741887 0.8287465070928622 -0.7067368547635299 0.0
C C -0.3960714590878393 0.8667005228801884 -0.6651332342526811 0.0
H H -0.49368145908783945 0.8646705228801884 -0.6426032342526811 0.0
C C -0.536188083224702 1.274908578699758 -0.7489371200298139 0.0
C C -0.7987043960515177 1.3139168974190514 -0.6809211140171894 0.0
C C -0.5075583820753978 1.1525571101709804 -0.5407300604675561 0.0
H H -0.5359683820753979 1.1498271101709803 -0.4926000604675562 0.0
C C -0.6887883170949719 1.2172742878850682 -0.5879926489391593 0.0
H H -0.759598317094972 1.2456442878850682 -0.5694526489391593 0.0
C C -0.605840929433814 1.2008076546662392 -0.6431242304432516 0.0
C C -0.45521179275447865 1.1417579201564327 -0.6593660261670977 0.0
H H -0.42690179275447865 1.1419279201564327 -0.7075260261670977 0.0
C C -0.40085887876207527 1.1359980739799673 -0.6321790373296209 0.0
H H -0.32736887876207527 1.1074680739799674 -0.6485390373296211 0.0
O O -0.2595132558992741 1.1291060399220512 -0.4162383903264176 0.0
O O -0.17664117178456992 1.110386389946994 -0.5103996511194226 0.0
O O 0.16161305103225562 0.8452467671348332 -0.2565412234106744 0.0
O O -0.29703814531071254 0.8639660501867603 -0.18917250404229896 0.0
N N -0.0635193634893563 0.8812694695862031 -0.2231541528933676 0.0
N N -0.25784515334288893 0.9978014272499084 -0.41207451509904136 0.0
C C -0.12162352251772324 1.1626389268544308 -0.44013525353964966 0.0
C C -0.008027167206471281 1.2178971798216225 -0.38810300083220794 0.0
C C 0.12993681610132424 1.2095506476519333 -0.44406940045901566 0.0
H H 0.16414681610132423 1.1848206476519334 -0.4813294004590156 0.0
C C -0.172023483240265 0.7545318229139314 -0.06591774561816759 0.0
H H -0.27043348324026506 0.7634018229139314 -0.04617774561816761 0.0
C C -0.13195692096631614 0.8024767451519849 -0.1527216412216562 0.0
C C -0.030345824395743775 0.7806582374037284 -0.20831901499258004 0.0
C C -0.07525197680406762 1.2298701337384823 -0.3590268331880838 0.0
H H -0.17574197680406758 1.2224401337384825 -0.34028683318808384 0.0
C C -0.2785829302055099 0.8518334638627948 -0.18836707810596376 0.0
C C -0.020855891632044116 0.8253312058008021 -0.24749270089201955 0.0
C C -0.29897425580613 1.0153365917902148 -0.32863309859366024 0.0
H H -0.35449425580613003 1.051106591790215 -0.3184030985936603 0.0
C C -0.23365327320543905 0.966679487849565 -0.2758530457232537 0.0
H H -0.26196327320543905 0.9751494878495649 -0.22871304572325374 0.0
C C -0.1608602691861142 0.8966697597142258 -0.30710467327244445 0.0
C C -0.015590615790592646 0.9162052050933994 -0.3552854145558184 0.0
H H 0.044389384209407357 0.8817752050933996 -0.3671454145558184 0.0
C C -0.1254095603178216 0.9553978904880736 -0.40916627226201685 0.0
H H -0.09365956031782159 0.9487778904880735 -0.4562462722620168 0.0
Cd Cd -0.3262194518075991 -0.5549064683060203 -0.9803625456646203 0.0
O O -0.44890394032197156 -0.4511043029902776 -1.0602478245833753 0.0
O O -0.21770366249612583 -0.5093559870114012 -1.0479672786923595 0.0
O O -0.9697051533416736 -0.7577511257004105 -1.2070244084928883 0.0
O O -0.42288618307674375 -0.7497809556727809 -1.2812685490354123 0.0
N N -0.45534841399091064 -0.6161547648688522 -1.0774627643856423 0.0
N N -0.627441774869045 -0.7578086897854598 -1.1993750705568709 0.0
C C -0.39304502933486857 -0.47478199495992773 -1.0900653977239967 0.0
C C -0.22352477308985022 -0.41898330669487416 -1.1381221597346027 0.0
C C -0.16009434945132964 -0.44274727343747955 -1.1942236241832136 0.0
H H -0.08518434945132959 -0.4736072734374796 -1.1815836241832134 0.0
C C -0.06145312579953087 -0.3640902707518898 -1.2485498453327968 0.0
H H 0.037456874200469156 -0.3646502707518898 -1.2702098453327968 0.0
C C -0.1530403641427538 -0.34260392799050593 -1.2470238640192695 0.0
C C -0.21521182368304012 -0.3386975002399333 -1.2160968703183594 0.0
C C -0.37776290513480815 -0.3851886098857274 -1.1896925457318157 0.0
H H -0.47537290513480823 -0.3831586098857274 -1.1671625457318158 0.0
C C -0.5374404858890163 -0.779619294346677 -1.240488791597315 0.0
C C -0.8259993122266497 -0.7707323913479207 -1.195197291638679 0.0
C C -0.583784920085553 -0.6819381054961456 -1.0576699953630533 0.0
H H -0.6121949200855531 -0.6792081054961457 -1.0095399953630535 0.0
C C -0.6066950667428016 -0.7191666871036843 -1.099493860492912 0.0
H H -0.6775050667428016 -0.7475366871036841 -1.080953860492912 0.0
C C -0.565316224824104 -0.6953286717275359 -1.1400983502647417 0.0
C C -0.4688634531244794 -0.6619432529159471 -1.1732086146638498 0.0
H H -0.4405534531244794 -0.6621132529159471 -1.22136861466385 0.0
C C -0.40674718348154915 -0.6107601762429453 -1.1154614429824763 0.0
H H -0.33325718348154915 -0.5822301762429454 -1.1318214429824762 0.0
O O -0.2843528437187637 -0.624792086266626 -0.8849093224694992 0.0
O O -0.07452310925899493 -0.6256269350981057 -0.983790746436895 0.0
O O 0.13949156545262303 -0.33617730987562594 -0.751344682634317 0.0
O O -0.35163377455766365 -0.4079598316475914 -0.664848939652349 0.0
N N -0.07286688207126304 -0.39501360125462676 -0.7528988641302518 0.0
N N -0.20554820866380255 -0.5008210163104978 -0.9082699500717633 0.0
C C -0.17591580344436758 -0.6633968474145857 -0.9456205748458963 0.0
C C -0.031195841296639486 -0.7108506776917751 -0.9039034070852927 0.0
C C 0.1315813398832637 -0.6991763830517586 -0.931975523347442 0.0
H H 0.1657913398832637 -0.6744463830517586 -0.9692355233474419 0.0
C C -0.17140823276882833 -0.28065748033364085 -0.6023107431581382 0.0
H H -0.2698182327688283 -0.2895274803336409 -0.5825707431581382 0.0
C C -0.1095277601921997 -0.2926785777871094 -0.6356561365877611 0.0
C C -0.015605330598312414 -0.3017541867283164 -0.7017616553447028 0.0
C C -0.17143203868067858 -0.7315620816254844 -0.8535825258660953 0.0
H H -0.2719220386806786 -0.7241320816254844 -0.8348425258660953 0.0
C C -0.19243281823583896 -0.3583533596981839 -0.6806694772998557 0.0
C C -0.0002839348125480008 -0.3209120026435986 -0.6955144482587912 0.0
C C -0.2810933739081878 -0.5190257340205147 -0.7979918433475794 0.0
H H -0.3366133739081878 -0.5547957340205147 -0.7877618433475795 0.0
C C -0.23757348945215026 -0.4819841000819616 -0.7252571650427585 0.0
H H -0.2658834894521503 -0.49045410008196155 -0.6781171650427585 0.0
C C -0.18649053008200048 -0.4057259626107598 -0.8020084841800832 0.0
C C -0.09899768320423968 -0.40738604344896 -0.8806922712740405 0.0
H H -0.039017683204239706 -0.37295604344896 -0.8925522712740406 0.0
C C -0.18684568952363506 -0.4311448392711581 -0.9053595721849365 0.0
H H -0.15509568952363506 -0.424524839271158 -0.9524395721849365 0.0
Cd Cd 0.2732873720427026 -1.0399747310993719 0.5076284142165178 0.0
O O 0.4033743319775546 -0.9664512974037639 0.5544509339841831 0.0
O O 0.24317944153770008 -0.9787239654820861 0.5898275277760838 0.0
O O 0.9086815241701907 -1.2467806959201908 0.6249572518363554 0.0
O O 0.40565659576149943 -1.2765857067831952 0.7571059378513774 0.0
N N 0.4894377129215799 -1.1375028902736088 0.5579215523894311 0.0
N N 0.6645895908443984 -1.223119359387123 0.6781610066650078 0.0
C C 0.29218769186120874 -0.9800843636776245 0.6126348970221267 0.0
C C 0.2586224727574481 -0.9057908355742171 0.6534509880861664 0.0
C C 0.18114675764269808 -0.8964394558621265 0.7158224138024002 0.0
H H 0.1062367576426981 -0.9272994558621266 0.7031824138024002 0.0
C C 0.04054130798618243 -0.8807191059390732 0.6992686882722557 0.0
H H -0.05836869201381759 -0.8812791059390732 0.7209286882722556 0.0
C C 0.21109325060705683 -0.8646755760348962 0.7377779108774114 0.0
C C 0.3329391880455502 -0.820294320167462 0.7033061705139791 0.0
C C 0.3663046997798928 -0.872099649085663 0.65437875567113 0.0
H H 0.4639146997798929 -0.870069649085663 0.6318487556711301 0.0
C C 0.49126810482331323 -1.3016424459172253 0.7138484233039784 0.0
C C 0.7469536483099635 -1.305636869297445 0.6616623453317029 0.0
C C 0.5257387970509683 -1.159241542577825 0.5217542159968597 0.0
H H 0.5541487970509684 -1.1565115425778247 0.47362421599685983 0.0
C C 0.6906083392143847 -1.2070253728289506 0.5663951982423191 0.0
H H 0.7614183392143848 -1.2353953728289506 0.5478551982423191 0.0
C C 0.5694616785388069 -1.205030077326823 0.6608300137324417 0.0
C C 0.4819632652516358 -1.1556609444887918 0.6881755760179482 0.0
H H 0.45365326525163574 -1.1558309444887918 0.7363355760179482 0.0
C C 0.4537332604775065 -1.1502306246532883 0.6040278344083555 0.0
H H 0.3802432604775065 -1.1217006246532883 0.6203878344083558 0.0
O O 0.28320549025615904 -1.116748341652916 0.40885858699869315 0.0
O O 0.06616851844892435 -1.1282307571591985 0.4962387718810792 0.0
O O -0.2129285186254021 -0.8715241241594007 0.25871704896492503 0.0
O O 0.30388533693990616 -0.8806014175609905 0.1841209628781564 0.0
N N 0.16350032422628719 -0.86792448228812 0.24794149224039747 0.0
N N 0.23998658517931945 -0.9996611668860859 0.42096827609928306 0.0
C C 0.195328785076223 -1.1548268633577121 0.41698443471340857 0.0
C C 0.01814898032909658 -1.1969178133392164 0.4054751567488924 0.0
C C -0.16049866130372656 -1.2028773379637552 0.4325127681694203 0.0
H H -0.1947086613037266 -1.178147337963755 0.4697727681694203 0.0
C C 0.17870473289084313 -0.7665040255565388 0.07966254394234655 0.0
H H 0.27711473289084315 -0.7753740255565389 0.05992254394234658 0.0
C C 0.13307006097270838 -0.8237075213413968 0.13902410306132992 0.0
C C -0.0055551879926060855 -0.8022071302209881 0.19624110775494563 0.0
C C 0.10990438991203068 -1.2299767040359975 0.34408942522582653 0.0
H H 0.21039438991203066 -1.2225467040359976 0.32534942522582655 0.0
C C 0.21278056349812513 -0.8353774546229774 0.2253753802436399 0.0
C C -0.04102415058995153 -0.8519120420353317 0.24947963072799276 0.0
C C 0.2842786939893492 -1.002924359429433 0.3284742795082936 0.0
H H 0.3397986939893492 -1.0386943594294331 0.31824427950829365 0.0
C C 0.15921636537133446 -0.9468966099216604 0.2594834333981577 0.0
H H 0.18752636537133452 -0.9553666099216603 0.21234343339815775 0.0
C C 0.18472439589614564 -0.9244724487807171 0.280513472536656 0.0
C C 0.09350300158467305 -0.8990044234277058 0.36911988665984646 0.0
H H 0.03352300158467305 -0.864574423427706 0.3809798866598465 0.0
C C 0.15206154862245497 -0.9272422621662659 0.41551958069932093 0.0
H H 0.12031154862245498 -0.920622262166266 0.46259958069932094 0.0
