_cell_length_a 8.39304
_cell_length_b 22.23511
_cell_length_c 18.74218
_cell_angle_alpha 90.0
_cell_angle_beta 94.0312
_cell_angle_gamma 90.0
_symmetry_space_group_name_H-M         'P 1'
_symmetry_Int_Tables_number            1
loop_
_symmetry_equiv_pos_as_xyz
   'x, y, z'
                         
loop_
_atom_site_label
_atom_site_type_symbol
_atom_site_fract_x 
_atom_site_fract_y
_atom_site_fract_z
_atom_site_charge
Cd Cd 0.3507237357930906 0.5655750942359501 0.9669574053178159 0.0
O O 0.4506862181597745 0.4591802856485564 1.0596847388295452 0.0
O O 0.2515205032845487 0.5065579779503799 1.0735361760415316 0.0
O O 0.8667383436265562 0.7680918512472079 1.1244885500730561 0.0
O O 0.44543194611373743 0.7584350565708449 1.2214890408444776 0.0
N N 0.47345610088228357 0.6236251743430592 1.096319338873332 0.0
N N 0.5976713315647589 0.7651589796039604 1.1772938211196842 0.0
C C 0.2606538533926985 0.4734079627219458 1.088468635515636 0.0
C C 0.20748263480284318 0.4097315795247106 1.142764957966968 0.0
C C 0.08279962014265384 0.43875897463763214 1.142643119444848 0.0
H H 0.007889620142653762 0.4696189746376322 1.1300031194448479 0.0
C C 0.13668511094776606 0.38086174317048316 1.1878893955825536 0.0
H H 0.037775110947766026 0.38142174317048316 1.2095493955825536 0.0
C C 0.23574940274010978 0.3169606888472374 1.2369324920319062 0.0
C C 0.37999840656391226 0.3021661127136866 1.2455675845767435 0.0
C C 0.43938104282816204 0.38097583581322814 1.1417973992462134 0.0
H H 0.5369910428281621 0.3789458358132281 1.1192673992462132 0.0
C C 0.5548563783475657 0.7483579267520221 1.2471751928886237 0.0
C C 0.737006016701401 0.8037968788630503 1.1919356798961223 0.0
C C 0.5496800119645449 0.6929202869826948 1.0454420148446106 0.0
H H 0.5780900119645449 0.6901902869826949 0.9973120148446109 0.0
C C 0.5982465251393689 0.7111681528078908 1.1066687006999723 0.0
H H 0.669056525139369 0.7395381528078907 1.0881287006999723 0.0
C C 0.6269921485656543 0.6817009738429055 1.1796871044802348 0.0
C C 0.4424570860531768 0.6634782696922299 1.1536173492853075 0.0
H H 0.41414708605317685 0.6636482696922299 1.2017773492853077 0.0
C C 0.4258682993080305 0.622223657474521 1.1107253112834465 0.0
H H 0.3523782993080305 0.5936936574745211 1.1270853112834465 0.0
O O 0.30265017335548033 0.6596630647450941 0.8995369026640931 0.0
O O 0.10276554321161023 0.6298569642311522 1.0034024353249753 0.0
O O -0.13231970079040087 0.3393798050552903 0.7592647688235539 0.0
O O 0.3831661600687346 0.3852349843446199 0.6256813674481219 0.0
N N 0.13360955918067685 0.37539304565704906 0.7588326807313647 0.0
N N 0.2450268606777925 0.4870656641225955 0.8991202230420355 0.0
C C 0.18619270040589128 0.6430427509283885 0.9450911969024532 0.0
C C -0.017508598177658184 0.7052661262598726 0.8969860592766824 0.0
C C -0.07303476478953012 0.7068987218231173 0.9172912412376272 0.0
H H -0.10724476478953013 0.6821687218231174 0.9545512412376271 0.0
C C 0.19377787647661052 0.2630074199794079 0.5778287880518425 0.0
H H 0.2921878764766105 0.2718774199794079 0.5580887880518425 0.0
C C 0.13830841801967328 0.3090578790838524 0.6758737698434507 0.0
C C 0.030900427307057873 0.26931997748652475 0.6709229195254695 0.0
C C 0.08035121118835978 0.7253258216522696 0.8697848653586099 0.0
H H 0.1808412111883598 0.7178958216522694 0.8510448653586099 0.0
C C 0.2243226090388837 0.34047081218898084 0.691235325873214 0.0
C C -0.08336352557684097 0.3428908272472204 0.7206133761227931 0.0
C C 0.29340820569344195 0.522285079405744 0.8180171748374243 0.0
H H 0.34892820569344196 0.5580550794057441 0.8077871748374243 0.0
C C 0.2201724396836418 0.4610112541978695 0.7843430146525425 0.0
H H 0.24848243968364178 0.46948125419786946 0.7372030146525426 0.0
C C 0.11224959707228353 0.39590239106954456 0.7941177150280843 0.0
C C 0.07273612683057849 0.39719848881334985 0.847651857254675 0.0
H H 0.012756126830578508 0.36276848881334983 0.8595118572546749 0.0
C C 0.14160785485114002 0.4701724098895385 0.9384597052271454 0.0
H H 0.10985785485114001 0.46355240988953844 0.9855397052271454 0.0
Cd Cd -0.2582772263695244 1.061425756597254 -0.5009147699579766 0.0
O O -0.47743748891112814 0.9895408175812747 -0.5601718243906695 0.0
O O -0.21594421352863907 1.003412669954138 -0.5814326176415919 0.0
O O -0.8872263146576755 1.2602444014973817 -0.6386606283908299 0.0
O O -0.35580757394671525 1.282895914244911 -0.7778395164948827 0.0
N N -0.42926364341484513 1.1282004507529095 -0.5333766453594911 0.0
N N -0.647181415281256 1.2671230255302752 -0.6902193347072101 0.0
C C -0.28235479841129446 0.96813442824447 -0.5833287302900974 0.0
C C -0.3606643386888987 0.8978638063380223 -0.6415224269854253 0.0
C C -0.10910711718938987 0.9502235042777273 -0.6857520901046857 0.0
H H -0.03419711718938985 0.9810835042777275 -0.6731120901046858 0.0
C C -0.10840914109819617 0.8871265467913291 -0.7246035229247791 0.0
H H -0.009499141098196153 0.8876865467913291 -0.746263522924779 0.0
C C -0.1618446974964532 0.8588580063111706 -0.7389737273392579 0.0
C C -0.3058200052910574 0.8347322891723833 -0.7055065181067997 0.0
C C -0.3051499830226253 0.8877169477219901 -0.6512202975978024 0.0
H H -0.40275998302262545 0.8856869477219901 -0.6286902975978024 0.0
C C -0.6071644970404007 1.303282473767778 -0.8029417586206401 0.0
C C -0.8713544346845377 1.2797302333958458 -0.7111188130888739 0.0
C C -0.562060901903107 1.169809416851435 -0.538985873852027 0.0
H H -0.5904709019031071 1.167079416851435 -0.4908558738520271 0.0
C C -0.5763623672389468 1.2099212852276908 -0.5658067763306533 0.0
H H -0.647172367238947 1.2382912852276908 -0.5472667763306532 0.0
C C -0.5464986314763364 1.218585249331903 -0.655360361929622 0.0
C C -0.39745793239299276 1.167292663290733 -0.689988585482086 0.0
H H -0.3691479323929927 1.167462663290733 -0.738148585482086 0.0
C C -0.4077146294803872 1.1307465304606925 -0.6425327068694632 0.0
H H -0.3342246294803872 1.1022165304606926 -0.6588927068694633 0.0
O O -0.23837652512719598 1.145514657029528 -0.42936798456980413 0.0
O O -0.14803973087261663 1.1177046738016982 -0.5116450517719698 0.0
O O 0.12954990168798447 0.8170719575319414 -0.2478067462631499 0.0
O O -0.3209807571403597 0.8680186173844671 -0.20302319221721998 0.0
N N -0.14642735918792046 0.8800321877020006 -0.22975723892642744 0.0
N N -0.23140025116041912 0.9971773204657356 -0.3913413353114058 0.0
C C -0.14030114011914013 1.1578551931338001 -0.4529572948936314 0.0
C C -0.0696175017489923 1.2070981413345405 -0.4011128783269159 0.0
C C 0.09928771282481676 1.2133030267265321 -0.48465771529101165 0.0
H H 0.13349771282481676 1.1885730267265322 -0.5219177152910115 0.0
C C -0.16842787140403798 0.731403961308456 -0.1273434110588302 0.0
H H -0.26683787140403803 0.740273961308456 -0.10760341105883024 0.0
C C -0.12113369627838316 0.8132500420067665 -0.16126861908995077 0.0
C C 0.021454099568165342 0.7745919751624147 -0.15005866219378072 0.0
C C -0.012359111045099203 1.2344025994369237 -0.3481342896942677 0.0
H H -0.1128491110450992 1.2269725994369238 -0.32939428969426776 0.0
C C -0.24274715577281564 0.8620412306695665 -0.18299688495555616 0.0
C C 0.0035733624308432253 0.8239899759388193 -0.23013577221526396 0.0
C C -0.324574351415796 1.0174430719708991 -0.34128814240069427 0.0
H H -0.38009435141579595 1.0532130719708992 -0.33105814240069437 0.0
C C -0.2129178622792975 0.9680815608254348 -0.2908560214977439 0.0
H H -0.24122786227929752 0.9765515608254348 -0.24371602149774396 0.0
C C -0.15465168725695075 0.9075781687805706 -0.27138191863957706 0.0
C C -0.1029068151024803 0.9150385606431065 -0.396142703400592 0.0
H H -0.0429268151024803 0.8806085606431067 -0.408002703400592 0.0
C C -0.15887301196722237 0.9389989273195972 -0.4270440969180589 0.0
H H -0.12712301196722234 0.9323789273195972 -0.4741240969180588 0.0
Cd Cd -0.32747146592554555 -0.5638155363374091 -1.0123777296595386 0.0
O O -0.4707062531046083 -0.4609505913725658 -1.0431265454772898 0.0
O O -0.22128112074455572 -0.5115540514474349 -1.067662706307563 0.0
O O -0.9405412088293661 -0.7884131275233826 -1.1907033505608808 0.0
O O -0.4189990765280905 -0.7720482939814778 -1.2521845297547205 0.0
N N -0.4543419622840611 -0.6329524911881224 -1.0864626432306905 0.0
N N -0.6654163265316462 -0.7321065408790152 -1.181145517686408 0.0
C C -0.31238522104564975 -0.42791084622246695 -1.0923668706513503 0.0
C C -0.2511796850148037 -0.42143479620404206 -1.1383344579369836 0.0
C C -0.1745978647960425 -0.4156550098195236 -1.1843653246951327 0.0
H H -0.09968786479604248 -0.44651500981952363 -1.1717253246951327 0.0
C C -0.05653919513903182 -0.37810387274900825 -1.2328188774568627 0.0
H H 0.0423708048609682 -0.37866387274900826 -1.254478877456863 0.0
C C -0.2122548799675943 -0.34942337156361203 -1.2939709936570134 0.0
C C -0.40202816583393863 -0.3376859020366504 -1.2025864781128133 0.0
C C -0.34575279065289294 -0.3718582755062739 -1.185966552415849 0.0
H H -0.4433627906528931 -0.3698282755062739 -1.1634365524158488 0.0
C C -0.4846494707676967 -0.8016210072344134 -1.231302908534172 0.0
C C -0.7512984335473539 -0.7651247113206989 -1.201099216109813 0.0
C C -0.5373885696491689 -0.6629445100948077 -1.0666739759703519 0.0
H H -0.565798569649169 -0.6602145100948078 -1.018543975970352 0.0
C C -0.5576105351597156 -0.7156428498514544 -1.116684768925187 0.0
H H -0.6284205351597156 -0.7440128498514543 -1.098144768925187 0.0
C C -0.5762764761976323 -0.6962674844596293 -1.1546998481577218 0.0
C C -0.5131059716455062 -0.6597925416267778 -1.1573480877941569 0.0
H H -0.4847959716455062 -0.6599625416267778 -1.205508087794157 0.0
C C -0.3534044749517852 -0.6078171258904604 -1.112065532512346 0.0
H H -0.2799144749517852 -0.5792871258904605 -1.1284255325123462 0.0
O O -0.2736469535900529 -0.6635717728935084 -0.8944154914798329 0.0
O O -0.06655797067293161 -0.5918304501926297 -0.9835180026206599 0.0
O O 0.11548394950181005 -0.340148410249675 -0.7505405048580087 0.0
O O -0.39921156591614165 -0.39124201206106907 -0.690204016924047 0.0
N N -0.1291173087067471 -0.369981638493423 -0.7746727695366942 0.0
N N -0.2670447577550973 -0.4940895584633178 -0.9037924675005167 0.0
C C -0.15221237446176253 -0.6504853034409329 -0.9278722161518033 0.0
C C 0.006859720619700298 -0.7166426132550395 -0.8941742583587687 0.0
C C 0.1038009180880073 -0.7184920616231811 -0.9553508327224285 0.0
H H 0.1380109180880073 -0.6937620616231812 -0.9926108327224283 0.0
C C -0.25838990508598003 -0.25956160105637255 -0.5793888074778486 0.0
H H -0.35679990508598003 -0.26843160105637254 -0.5596488074778486 0.0
C C -0.18143399570424315 -0.2752257972627426 -0.6486959942770697 0.0
C C 0.028613610392894475 -0.2809484157600942 -0.6535631475758313 0.0
C C -0.09301035227248758 -0.7389070658400694 -0.8638305456572972 0.0
H H -0.1935003522724876 -0.7314770658400693 -0.8450905456572972 0.0
C C -0.20876898618100032 -0.38352934449132153 -0.6917009879714892 0.0
C C 0.057165055136449754 -0.3428853368839473 -0.7410370859411897 0.0
C C -0.24680726034355088 -0.5084587641140713 -0.8258568198217556 0.0
H H -0.30232726034355084 -0.5442287641140714 -0.8156268198217556 0.0
C C -0.20339434834979594 -0.48836103330649216 -0.7497039700897536 0.0
H H -0.23170434834979595 -0.49683103330649214 -0.7025639700897537 0.0
C C -0.13638860041542974 -0.40027817236338314 -0.809594203378644 0.0
C C -0.11518258535468867 -0.4156186906211974 -0.8705919184922766 0.0
H H -0.05520258535468869 -0.3811886906211974 -0.8824519184922767 0.0
C C -0.20725340106507734 -0.45080671568286723 -0.8959225182519375 0.0
H H -0.17550340106507734 -0.44418671568286716 -0.9430025182519375 0.0
Cd Cd 0.2956396266112628 -1.0411445326842845 0.48361783858706053 0.0
O O 0.467161808133874 -0.9722588325442839 0.5343071540259423 0.0
O O 0.2011336008992336 -1.0068374175973507 0.5715799060443035 0.0
O O 0.8766919491546946 -1.2923938095817593 0.672251591412574 0.0
O O 0.4226806215178783 -1.293814909388982 0.7711320347496771 0.0
N N 0.43560620420798823 -1.125639056487164 0.5614615241111771 0.0
N N 0.6341312665196747 -1.2564524827283736 0.7005599140787155 0.0
C C 0.3081926073232619 -0.935502790682922 0.60254887528806 0.0
C C 0.25781042150058414 -0.9213130919432052 0.6510625714138193 0.0
C C 0.15015467936657076 -0.91564976784481 0.6844724202742132 0.0
H H 0.07524467936657077 -0.9465097678448102 0.6718324202742132 0.0
C C 0.07708456132343112 -0.8837089900148828 0.7287626844848352 0.0
H H -0.021825438676568894 -0.8842689900148828 0.7504226844848351 0.0
C C 0.1265434893733579 -0.835162194314954 0.7340049063608656 0.0
C C 0.33875365597265156 -0.8423537624468506 0.6971040097556243 0.0
C C 0.36095860109456396 -0.877838365653728 0.6613539443292153 0.0
H H 0.45856860109456404 -0.875808365653728 0.6388239443292153 0.0
C C 0.5052263932046591 -1.2835025373692386 0.7470051782160981 0.0
C C 0.7994506197758492 -1.290855517830025 0.6945638548293882 0.0
C C 0.5932722010336844 -1.1518083615280355 0.5377013178321965 0.0
H H 0.6216822010336844 -1.1490783615280353 0.48957131783219665 0.0
C C 0.6993649794200704 -1.1944263005578086 0.5592585875038998 0.0
H H 0.7701749794200705 -1.2227963005578086 0.5407185875038997 0.0
C C 0.629627068446919 -1.2059768427362372 0.6164440078303822 0.0
C C 0.5112478027783652 -1.1735315474922043 0.6542686611302196 0.0
H H 0.4829378027783652 -1.1737015474922043 0.7024286611302196 0.0
C C 0.41459509987666565 -1.1238859489882693 0.643384433870722 0.0
H H 0.34110509987666565 -1.0953559489882694 0.6597444338707222 0.0
O O 0.2578422662863077 -1.1305594127427443 0.4194537520363924 0.0
O O 0.11743070246466313 -1.116528590459906 0.49401831606479785 0.0
O O -0.1710500830537352 -0.8349334141229732 0.22031453819694022 0.0
O O 0.32228798711143014 -0.8677167440340452 0.16183755655206392 0.0
N N 0.08024241323410665 -0.8603826774834455 0.24137088992715036 0.0
N N 0.23525026097954566 -1.0127124994731531 0.4293384547590982 0.0
C C 0.19023173485872674 -1.1472246300054565 0.4106061973318709 0.0
C C 0.003344806839283212 -1.2067267329357285 0.4215357246332198 0.0
C C -0.16432396228549398 -1.2302023240928674 0.4354646747359916 0.0
H H -0.19853396228549397 -1.2054723240928675 0.4727246747359916 0.0
C C 0.19061156095935072 -0.78040869071841 0.07597517358305776 0.0
H H 0.2890215609593507 -0.7892786907184101 0.05623517358305779 0.0
C C 0.1691009101718649 -0.7915253907865308 0.14832740129328753 0.0
C C -0.008393179987725341 -0.7914854234365691 0.1877802546248899 0.0
C C 0.13567950599628298 -1.2671074515839214 0.366910785740286 0.0
H H 0.23616950599628297 -1.2596774515839215 0.34817078574028604 0.0
C C 0.23678706327040955 -0.8326564883130732 0.1543788703937348 0.0
C C -0.034000838586925104 -0.8384149776965816 0.23850203681490498 0.0
C C 0.26119495578223734 -1.021667705640777 0.32186350888867704 0.0
H H 0.3167149557822373 -1.057437705640777 0.31163350888867714 0.0
C C 0.18890726248437414 -0.9687665316293373 0.28891973197695536 0.0
H H 0.21721726248437415 -0.9772365316293373 0.2417797319769554 0.0
C C 0.1300788783595861 -0.9186958963943848 0.27532723724058666 0.0
C C 0.09983276607126321 -0.9139223170283152 0.3422817072819875 0.0
H H 0.039852766071263215 -0.8794923170283153 0.35414170728198746 0.0
C C 0.1949205638918147 -0.9509659242173241 0.41433253570679873 0.0
H H 0.16317056389181464 -0.944345924217324 0.46141253570679863 0.0
_cell_length_a 8.39304
_cell_length_b 22.23511
_cell_length_c 18.74218
_cell_angle_alpha 90.0
_cell_angle_beta 94.0312
_cell_angle_gamma 90.0
_symmetry_space_group_name_H-M         'P 1'
_symmetry_Int_Tables_number            1
loop_
_symmetry_equiv_pos_as_xyz
   'x, y, z'
                         
loop_
_atom_site_label
_atom_site_type_symbol
_atom_site_fract_x 
_atom_site_fract_y
_atom_site_fract_z
_atom_site_charge
Cd Cd 0.30919058856985354 0.5471571832297666 0.9870002399156215 0.0
O O 0.4573967566951116 0.44793430890311015 1.0708556101811906 0.0
O O 0.2255256064995376 0.4656664553689364 1.061478277883375 0.0
O O 0.8735695647602312 0.7512840815690186 1.19433255821734 0.0
O O 0.4070754382069728 0.8087358885587249 1.2832579164748883 0.0
N N 0.5222806177364835 0.6128879252236622 1.0656945494795471 0.0
N N 0.624934238785018 0.7520746710430987 1.1610774662655927 0.0
C C 0.2839078838164377 0.4550284339441618 1.0790595057153123 0.0
C C 0.254360765258765 0.4177799316829815 1.1443931916667935 0.0
C C 0.10161443815663929 0.43472934082859943 1.1645401640055715 0.0
H H 0.02670443815663925 0.46558934082859943 1.1519001640055715 0.0
C C 0.129546323347081 0.37404266925426993 1.2760182711808776 0.0
H H 0.03063632334708097 0.37460266925426994 1.2976782711808776 0.0
C C 0.13890117006312672 0.3176372676191823 1.2603770752851977 0.0
C C 0.3436338560866696 0.3378151088776578 1.2347613564114737 0.0
C C 0.4531018930643108 0.34731696060669603 1.1496459675075255 0.0
H H 0.5507118930643109 0.34528696060669606 1.1271159675075255 0.0
C C 0.48912175475314107 0.7789448627621337 1.2863350899834791 0.0
C C 0.7676219221946363 0.8139180082824021 1.2043675657280826 0.0
C C 0.5272444471478772 0.6537842328563859 1.0390543562038794 0.0
H H 0.5556544471478772 0.6510542328563861 0.9909243562038795 0.0
C C 0.6484769133881045 0.7164855479007181 1.1066579579225704 0.0
H H 0.7192869133881046 0.744855547900718 1.0881179579225704 0.0
C C 0.5772935852076047 0.7310366780716789 1.149974851364003 0.0
C C 0.49556340253163894 0.6652959137124826 1.2086712881838204 0.0
H H 0.467253402531639 0.6654659137124826 1.2568312881838206 0.0
C C 0.40802924970139426 0.6322019085945237 1.106274413922317 0.0
H H 0.3345392497013942 0.6036719085945238 1.1226344139223172 0.0
O O 0.27042027664474133 0.6325960899021885 0.8920001998315614 0.0
O O 0.1298907309889637 0.6253495241278616 0.9702746569032985 0.0
O O -0.12091367994126498 0.3304425442588205 0.7744300160030773 0.0
O O 0.353866656178416 0.3737056936441729 0.7046957043532962 0.0
N N 0.07611512599690722 0.40530217846591304 0.7581417475750775 0.0
N N 0.30137849062784144 0.47508189894161196 0.8902363163827615 0.0
C C 0.21698218023925286 0.6533385134291818 0.9329756011958111 0.0
C C 0.10444081039780354 0.7161161953418304 0.9181409653280612 0.0
C C -0.05158440891764809 0.7097839094500952 0.9362941309643121 0.0
H H -0.08579440891764815 0.6850539094500953 0.9735541309643121 0.0
C C 0.197048967736343 0.25415123905854514 0.5974331514247732 0.0
H H 0.295458967736343 0.26302123905854513 0.5776931514247731 0.0
C C 0.13022226608330717 0.30523788439346616 0.6460644766244101 0.0
C C -0.016512936418979197 0.29143979161950323 0.6466335538244408 0.0
C C 0.1015588869059042 0.7262306258506813 0.8356622254943484 0.0
H H 0.20204888690590422 0.7188006258506813 0.8169222254943486 0.0
C C 0.1869753750800532 0.3611022192345455 0.7070605619564142 0.0
C C 0.031312221125794425 0.3490337967912842 0.7192957463385585 0.0
C C 0.2714595373898229 0.5038740613994062 0.8343492882956021 0.0
H H 0.3269795373898229 0.5396440613994062 0.8241192882956021 0.0
C C 0.1800260215579506 0.45526221703473235 0.7780216773841012 0.0
H H 0.20833602155795064 0.46373221703473233 0.7308816773841013 0.0
C C 0.1231081266592554 0.4157058718031846 0.7695368565709517 0.0
C C 0.09314023902920016 0.3873911207472687 0.8679343308647627 0.0
H H 0.03316023902920017 0.3529611207472687 0.8797943308647628 0.0
C C 0.17003551039101458 0.42361158634149493 0.8914125630002981 0.0
H H 0.13828551039101455 0.4169915863414949 0.9384925630002982 0.0
Cd Cd -0.3383803656143248 1.0714545786343534 -0.48152034508713487 0.0
O O -0.44003827281864216 0.9666779296218913 -0.541591606784102 0.0
O O -0.2226140226969283 1.0120159826383146 -0.5648740170868521 0.0
O O -0.9946760372190777 1.26328227923886 -0.6734065403574628 0.0
O O -0.3418077839453783 1.2486505548378135 -0.782148686576556 0.0
N N -0.41389064408705967 1.1253894666317705 -0.5586569383108214 0.0
N N -0.6139447457483576 1.2704971490206887 -0.7048562860650623 0.0
C C -0.3501212156783136 0.9512195665835331 -0.5877987569127324 0.0
C C -0.25163699673069695 0.9358026298597022 -0.6501400596868087 0.0
C C -0.15507727091150567 0.9069750592211894 -0.6477769628915495 0.0
H H -0.08016727091150568 0.9378350592211895 -0.6351369628915495 0.0
C C -0.10238065324404316 0.8776356220658633 -0.7777250520715653 0.0
H H -0.0034706532440431223 0.8781956220658633 -0.7993850520715652 0.0
C C -0.2106992134818946 0.8467736551203072 -0.7668122946357955 0.0
C C -0.3663787216246105 0.8184455115670936 -0.7295153841027745 0.0
C C -0.42535109738691834 0.8835804301148041 -0.6507951097217113 0.0
H H -0.5229610973869184 0.8815504301148042 -0.6282651097217113 0.0
C C -0.5165574837702039 1.2690997496091905 -0.7684504754745096 0.0
C C -0.7424903449154808 1.2870301521885876 -0.6786069916513139 0.0
C C -0.5476476421845082 1.1534294989787814 -0.5454323183342733 0.0
H H -0.5760576421845083 1.1506994989787813 -0.4973023183342734 0.0
C C -0.6859501035316666 1.2242253881706053 -0.58185275008692 0.0
H H -0.7567601035316668 1.2525953881706053 -0.5633127500869198 0.0
C C -0.5836071264574231 1.197072079765805 -0.6662126456382339 0.0
C C -0.5059695125921609 1.167024196119177 -0.6858163763100861 0.0
H H -0.4776595125921609 1.167194196119177 -0.733976376310086 0.0
C C -0.36418663318501987 1.124653969349343 -0.622988008316178 0.0
H H -0.29069663318501987 1.096123969349343 -0.6393480083161781 0.0
O O -0.29371684655867053 1.1481194798070098 -0.419019167471364 0.0
O O -0.11869346760301888 1.1083308223649697 -0.5038256812326425 0.0
O O 0.19474714844305469 0.8363710571010559 -0.26703947966633573 0.0
O O -0.31229673719111833 0.8766541052542642 -0.13474785298133996 0.0
N N -0.1495603239829911 0.8598237472622121 -0.23672276666142064 0.0
N N -0.14696786531897219 1.009387408374979 -0.3706288617956754 0.0
C C -0.10311818051406312 1.1388196857698645 -0.42981658878232865 0.0
C C -0.03841854451628284 1.2072710563548368 -0.43589131609911236 0.0
C C 0.0537130544318554 1.2091098172757995 -0.40957638478979114 0.0
H H 0.0879230544318554 1.1843798172757996 -0.44683638478979115 0.0
C C -0.1847909055672697 0.7475714713036586 -0.11302864880611059 0.0
H H -0.28320090556726973 0.7564414713036587 -0.09328864880611061 0.0
C C -0.15713644669615145 0.7941945602730007 -0.14473910108659285 0.0
C C -0.016021737179392592 0.7795290992769515 -0.1748186735463562 0.0
C C -0.09068444402002927 1.2406196535831344 -0.35022408199913163 0.0
H H -0.19117444402002923 1.2331896535831346 -0.33148408199913165 0.0
C C -0.23711943695930868 0.8560355521641976 -0.1757529892711379 0.0
C C -0.07109599371747952 0.8205928014003908 -0.2211582791160655 0.0
C C -0.2565427939391995 1.017198774527551 -0.3336417256609775 0.0
H H -0.3120627939391995 1.052968774527551 -0.3234117256609776 0.0
C C -0.1887861313821306 0.9672376540893896 -0.2712625668370814 0.0
H H -0.21709613138213063 0.9757076540893895 -0.22412256683708143 0.0
C C -0.10081797008411506 0.931062279326372 -0.2844132599062749 0.0
C C -0.15921953206493217 0.8987845206495573 -0.3497242047887758 0.0
H H -0.09923953206493216 0.8643545206495573 -0.3615842047887758 0.0
C C -0.11279728213361813 0.9277380409977278 -0.4222856114346269 0.0
H H -0.0810472821336181 0.9211180409977278 -0.4693656114346268 0.0
Cd Cd -0.3167737900046237 -0.563849670151973 -0.9745987232955307 0.0
O O -0.40039986894724233 -0.4614671333265834 -1.055748009682601 0.0
O O -0.1772942014419117 -0.5114410861782702 -1.0796065311704406 0.0
O O -0.9993805750992137 -0.7799861894259026 -1.188422990611484 0.0
O O -0.4541080767673961 -0.7785209163966385 -1.2557695286962263 0.0
N N -0.421066253204954 -0.6264483165507698 -1.0575316127673895 0.0
N N -0.656191660880896 -0.7389128840854869 -1.1990112437783988 0.0
C C -0.2898421346794535 -0.4612165825587964 -1.1034454645096532 0.0
C C -0.24956834664411132 -0.419209486443926 -1.1522579453389343 0.0
C C -0.16491812182099208 -0.42458021518674943 -1.175185417187988 0.0
H H -0.09000812182099205 -0.45544021518674943 -1.1625454171879879 0.0
C C -0.11246904245959412 -0.37527116431230095 -1.2395966058495573 0.0
H H -0.013559042459594092 -0.37583116431230096 -1.2612566058495573 0.0
C C -0.22623035796273136 -0.3180237452776663 -1.2715440759340628 0.0
C C -0.37707563165110497 -0.3447530298821859 -1.2010971115545679 0.0
C C -0.40137852950727065 -0.37686322247831444 -1.1973505295666926 0.0
H H -0.49898852950727074 -0.37483322247831447 -1.1748205295666927 0.0
C C -0.5070934423380127 -0.8149357401249928 -1.2787406051998116 0.0
C C -0.7645069260602327 -0.7855808948965524 -1.2045058625072256 0.0
C C -0.5169046441714479 -0.646083112324968 -1.0317406595160687 0.0
H H -0.5453146441714479 -0.6433531123249681 -0.983610659516069 0.0
C C -0.6346956425683519 -0.6797601308451889 -1.0915775324745474 0.0
H H -0.7055056425683519 -0.7081301308451888 -1.0730375324745474 0.0
C C -0.520359773396433 -0.7040842772389228 -1.1630443641878276 0.0
C C -0.5397965913707027 -0.6266307138940854 -1.1740817179911385 0.0
H H -0.5114865913707027 -0.6268007138940854 -1.2222417179911387 0.0
C C -0.4004526717739039 -0.633766674091894 -1.135720480961773 0.0
H H -0.32696267177390387 -0.6052366740918941 -1.152080480961773 0.0
O O -0.22626355868372197 -0.6407664437275223 -0.9139730312134301 0.0
O O -0.09229230578791625 -0.6532052749954042 -0.9771007269228512 0.0
O O 0.1932716224013077 -0.32546893040345787 -0.7802521573855408 0.0
O O -0.3317727603326946 -0.38078555585045437 -0.7117758392951984 0.0
N N -0.04752478728296992 -0.38770495922719805 -0.7380958308750616 0.0
N N -0.20958225254122254 -0.48368964566060624 -0.8964577804091185 0.0
C C -0.15826366858946378 -0.6257749487230202 -0.9271654161120966 0.0
C C -0.006133926396724515 -0.7085937487690632 -0.9180392303844555 0.0
C C 0.20711307683715358 -0.7309844866865176 -0.9145543499819301 0.0
H H 0.24132307683715357 -0.7062544866865178 -0.9518143499819299 0.0
C C -0.19859274179661263 -0.26532505845934856 -0.6117958757558253 0.0
H H -0.2970027417966126 -0.2741950584593486 -0.5920558757558253 0.0
C C -0.15685279248053544 -0.2939649571583357 -0.6507584971054526 0.0
C C 0.01771177157668521 -0.26950253273634767 -0.6527355029852538 0.0
C C -0.05252972258725322 -0.7594761191611294 -0.8770567341407574 0.0
H H -0.15301972258725327 -0.7520461191611294 -0.8583167341407574 0.0
C C -0.22342603459589602 -0.3799562694861602 -0.7316177540461014 0.0
C C -0.004014433460061012 -0.31308070032964314 -0.7467575006972516 0.0
C C -0.2391954262299395 -0.5078783340874766 -0.8527414623225581 0.0
H H -0.2947154262299395 -0.5436483340874767 -0.8425114623225581 0.0
C C -0.23250673722290877 -0.4612945167952213 -0.770093083392349 0.0
H H -0.26081673722290877 -0.4697645167952213 -0.7229530833923491 0.0
C C -0.1558364155605595 -0.3934124829497657 -0.8222151023946397 0.0
C C -0.11419091909239926 -0.38921546024036274 -0.8672474345977239 0.0
H H -0.05421091909239928 -0.3547854602403628 -0.879107434597724 0.0
C C -0.08778845439089919 -0.42267509752171517 -0.9045357563753315 0.0
H H -0.05603845439089917 -0.4160550975217151 -0.9516157563753315 0.0
Cd Cd 0.2996205995493849 -1.063788757448673 0.4919661199111223 0.0
O O 0.42919155367876455 -0.9694121958603324 0.5664873692432606 0.0
O O 0.2184538605969233 -0.9927376147270089 0.5587615541414531 0.0
O O 0.9269081180036152 -1.2625855399893642 0.6852811710635454 0.0
O O 0.4890970955181985 -1.2557169481790997 0.7784643846646352 0.0
N N 0.4771831551098858 -1.1132189368193401 0.5867259706946719 0.0
N N 0.5995333245284643 -1.2498341570953804 0.6985553185096997 0.0
C C 0.2879317523528062 -0.9809133936428878 0.6305940251522274 0.0
C C 0.1846384645626794 -0.9231056330942718 0.6606212155149904 0.0
C C 0.1038020658820651 -0.9121852595880209 0.6771613772421167 0.0
H H 0.02889206588206509 -0.9430452595880211 0.6645213772421167 0.0
C C 0.04317520609850114 -0.8870830840658974 0.7372654572862952 0.0
H H -0.055734793901498866 -0.8876430840658974 0.7589254572862952 0.0
C C 0.2111553667368912 -0.8190160789013792 0.7577263413442882 0.0
C C 0.4187472612556539 -0.8587517514611599 0.7130859190012893 0.0
C C 0.3847570372137212 -0.8716459244561375 0.6620192614403749 0.0
H H 0.48236703721372126 -0.8696159244561376 0.6394892614403749 0.0
C C 0.6195856734245584 -1.2842144826240962 0.7295807667700985 0.0
C C 0.8097554381407172 -1.269312152334891 0.7124323043335208 0.0
C C 0.5453696589437422 -1.1673566804972442 0.5427184936189902 0.0
H H 0.5737796589437422 -1.164626680497244 0.49458849361899027 0.0
C C 0.6103033502870677 -1.2167629190383147 0.5745362665166438 0.0
H H 0.6811133502870678 -1.2451329190383147 0.5559962665166437 0.0
C C 0.6335309482388953 -1.1859765621834402 0.6887202788271298 0.0
C C 0.5101029450896809 -1.1831907410393443 0.670111058520202 0.0
H H 0.4817929450896809 -1.1833607410393443 0.718271058520202 0.0
C C 0.3925071190128107 -1.1407006672510636 0.6390203319466059 0.0
H H 0.3190171190128107 -1.1121706672510636 0.6553803319466062 0.0
O O 0.2685537377121153 -1.1581944343377313 0.4152012069825193 0.0
O O 0.11428750975578512 -1.1332704256960426 0.48191283775295496 0.0
O O -0.14887920957962056 -0.8527034801868879 0.2411776521495101 0.0
O O 0.38616905598579665 -0.8991350785968781 0.16541524275829814 0.0
N N 0.09075972178174516 -0.8704508932913175 0.24299346444483083 0.0
N N 0.21724525534007785 -0.9904524617738729 0.4073388720099205 0.0
C C 0.15565523739663828 -1.1399725365671125 0.435455340502953 0.0
C C 0.03512344861953564 -1.2232537855227277 0.4245648369818727 0.0
C C -0.18764198942489618 -1.2123224143044564 0.4209432972574423 0.0
H H -0.22185198942489623 -1.1875924143044565 0.45820329725744224 0.0
C C 0.18451845674073347 -0.76513803988461 0.09921870697916343 0.0
H H 0.28292845674073347 -0.7740080398846101 0.07947870697916345 0.0
C C 0.12069267448565867 -0.8051616537851835 0.13373141669305807 0.0
C C -0.04278350157047954 -0.7923231598678777 0.15155900060786015 0.0
C C 0.0852812445321951 -1.243819491453033 0.3392934440733213 0.0
H H 0.1857712445321951 -1.2363894914530331 0.3205534440733213 0.0
C C 0.26473972706084686 -0.8195597141649243 0.20067608468955736 0.0
C C 0.0029193587769694076 -0.8397384087210981 0.21691462429820887 0.0
C C 0.24927454597653903 -0.9964272769393896 0.31595612056979827 0.0
H H 0.30479454597653904 -1.0321972769393897 0.30572612056979837 0.0
C C 0.26209734660876277 -0.9526279394111001 0.2915276170899085 0.0
H H 0.2904073466087628 -0.9610979394111001 0.24438761708990847 0.0
C C 0.16791735139086061 -0.9426614150285502 0.27442097035259105 0.0
C C 0.08612282063453124 -0.9167649753673287 0.3781501753666633 0.0
H H 0.026142820634531234 -0.8823349753673289 0.3900101753666633 0.0
C C 0.12775519061630322 -0.9481405374120135 0.41291179119125393 0.0
H H 0.09600519061630322 -0.9415205374120135 0.459991791191254 0.0
