_cell_length_a 8.39304
_cell_length_b 22.23511
_cell_length_c 18.74218
_cell_angle_alpha 90.0
_cell_angle_beta 94.0312
_cell_angle_gamma 90.0
_symmetry_space_group_name_H-M         'P 1'
_symmetry_Int_Tables_number            1
loop_
_symmetry_equiv_pos_as_xyz
   'x, y, z'
                         
loop_
_atom_site_label
_atom_site_type_symbol
_atom_site_fract_x 
_atom_site_fract_y
_atom_site_fract_z
_atom_site_charge
Cd Cd 0.2966155860779224 0.5482602414012079 1.009634690091249 0.0
O O 0.46098677519882364 0.460847221016139 1.036175828174636 0.0
O O 0.1724397683300198 0.508708284083479 1.078842737343849 0.0
O O 0.9143804776574466 0.7659585508171887 1.1237627682703635 0.0
O O 0.38837578796805294 0.7828759054026486 1.2031177169021856 0.0
N N 0.513013572701183 0.6249240142675779 1.0761597199887072 0.0
N N 0.6955081281851616 0.7351056409171196 1.218103013869894 0.0
C C 0.33606587548915956 0.44886172470674784 1.0966432019240182 0.0
C C 0.2828731485910715 0.4267665364771939 1.1398079750269567 0.0
C C 0.11066502892903649 0.43042023897297516 1.1674263769139337 0.0
H H 0.03575502892903644 0.46128023897297515 1.1547863769139335 0.0
C C 0.11732365574898006 0.368700649580474 1.246129445904482 0.0
H H 0.018413655748980042 0.369260649580474 1.267789445904482 0.0
C C 0.15464069728059304 0.3365356793763303 1.2430933254494607 0.0
C C 0.35860252468921594 0.32731705583664505 1.234851850485872 0.0
C C 0.36974741159808805 0.3791370014501546 1.1615669878307513 0.0
H H 0.46735741159808813 0.37710700145015463 1.1390369878307514 0.0
C C 0.4910547124795926 0.7827193680896557 1.2483361217245792 0.0
C C 0.75541165745546 0.7809996000935863 1.1977581716090455 0.0
C C 0.4646225792673677 0.6715140300783324 1.0469397222127146 0.0
H H 0.49303257926736777 0.6687840300783326 0.9988097222127148 0.0
C C 0.6507502412753604 0.7212221063360584 1.104624740640835 0.0
H H 0.7215602412753604 0.7495921063360582 1.086084740640835 0.0
C C 0.5681515915922372 0.691815738773214 1.1516210675645122 0.0
C C 0.42786301881656885 0.6588511746080009 1.1647757052255816 0.0
H H 0.39955301881656885 0.6590211746080009 1.2129357052255818 0.0
C C 0.43331813271079206 0.6363731793548368 1.1462449069684884 0.0
H H 0.359828132710792 0.6078431793548369 1.1626049069684885 0.0
O O 0.2931473286588231 0.6392668152309555 0.9115201706969452 0.0
O O 0.1102118333983264 0.6231326301945349 0.97024058703467 0.0
O O -0.07881669926509642 0.3317030545316557 0.7557805612553159 0.0
O O 0.3301795607252529 0.33485034647558387 0.6777539240137077 0.0
N N 0.03493012685246003 0.34590375211422275 0.722473086859547 0.0
N N 0.23239954640098892 0.4816628605044576 0.898787361933045 0.0
C C 0.12888017011740027 0.636735082215491 0.9276251037216915 0.0
C C 0.11719273135425542 0.7179714495635778 0.9089648368409307 0.0
C C -0.042699478099758326 0.7366901323215547 0.9590486705821835 0.0
H H -0.07690947809975836 0.7119601323215548 0.9963086705821834 0.0
C C 0.21612199500459772 0.27808531318646995 0.5972078213256686 0.0
H H 0.3145319950045977 0.28695531318647 0.5774678213256687 0.0
C C 0.1326308120150101 0.2962560632326991 0.6432750413156754 0.0
C C -0.040779773457056384 0.29447271966696587 0.6644093155118853 0.0
C C 0.09404101793608974 0.7082313418992672 0.8632202131299983 0.0
H H 0.1945310179360898 0.7008013418992671 0.8444802131299984 0.0
C C 0.19348573791270365 0.3290783208344617 0.6669645731925119 0.0
C C -0.03123031054406847 0.3464365992744851 0.7296342557551723 0.0
C C 0.3277496679462932 0.5066198810794093 0.8439059312005247 0.0
H H 0.3832696679462932 0.5423898810794093 0.8336759312005246 0.0
C C 0.23851966989471968 0.4651613860507276 0.7717284711263055 0.0
H H 0.2668296698947197 0.4736313860507276 0.7245884711263055 0.0
C C 0.1091453191582798 0.4047156756463405 0.785409773725478 0.0
C C 0.11528048346986283 0.4035552578151319 0.8439596645039416 0.0
H H 0.05530048346986284 0.36912525781513195 0.8558196645039416 0.0
C C 0.1322545138026356 0.4396632002822455 0.9051254028444539 0.0
H H 0.10050451380263557 0.4330432002822454 0.9522054028444539 0.0
Cd Cd -0.3302892145741461 1.0596536608978957 -0.4803124873705769 0.0
O O -0.4622925739723116 0.9631945283635196 -0.5432865896114462 0.0
O O -0.18032489293925744 1.0058966601087957 -0.5498677046678512 0.0
O O -1.0106826991817537 1.263466401704492 -0.6205336043581783 0.0
O O -0.378123787017106 1.3224397593884354 -0.7365862273425741 0.0
N N -0.42840032817597323 1.138412422062684 -0.5765820937953392 0.0
N N -0.6186666202390013 1.2804449055178544 -0.736000981369403 0.0
C C -0.2855358975878918 0.9766887274944659 -0.6042856774901836 0.0
C C -0.28847254246402804 0.911697598241488 -0.6259307089246792 0.0
C C -0.1454201959899882 0.9156712598415505 -0.7068281553516755 0.0
H H -0.07051019598998821 0.9465312598415507 -0.6941881553516756 0.0
C C -0.08916523745993639 0.8776215272569433 -0.7184287299253851 0.0
H H 0.009744762540063632 0.8781815272569433 -0.740088729925385 0.0
C C -0.2362619598465381 0.8404913555587089 -0.7264886894054533 0.0
C C -0.3351441525048936 0.854547738232693 -0.7379416867133121 0.0
C C -0.4096965869890844 0.8785781585112997 -0.6607456544837214 0.0
H H -0.5073065869890845 0.8765481585112997 -0.6382156544837214 0.0
C C -0.6198225855493221 1.2912909486734057 -0.7339832907317828 0.0
C C -0.7242940623448506 1.2643916017608718 -0.667177019553262 0.0
C C -0.5286309955785605 1.159196462194588 -0.5511336177526203 0.0
H H -0.5570409955785606 1.156466462194588 -0.5030036177526204 0.0
C C -0.6152862505548888 1.2219078157488974 -0.5653910212097528 0.0
H H -0.686096250554889 1.2502778157488974 -0.5468510212097528 0.0
C C -0.5742047717548628 1.1874092932381968 -0.6109711048093243 0.0
C C -0.40036248750409376 1.1431583037012463 -0.7014461051889865 0.0
H H -0.3720524875040937 1.1433283037012463 -0.7496061051889864 0.0
C C -0.43980738040176104 1.1355115176115236 -0.6269720459243131 0.0
H H -0.366317380401761 1.1069815176115236 -0.6433320459243134 0.0
O O -0.24114244494783887 1.135076195420514 -0.3862333264944853 0.0
O O -0.10498932039083356 1.1133165355817747 -0.5019597927675398 0.0
O O 0.11141035542507532 0.8177432202622682 -0.24997944937918273 0.0
O O -0.3346606693033828 0.8667308691256221 -0.14195532120163318 0.0
N N -0.1010677459187255 0.8292559252722446 -0.23917596341695063 0.0
N N -0.21418184340457014 0.9934631627217296 -0.41277860765665225 0.0
C C -0.21200779120704805 1.1368281584288356 -0.4291345053384516 0.0
C C -0.1015459707048232 1.2214124089907537 -0.40820395218487 0.0
C C 0.04404944400381791 1.197969950469249 -0.4238093235376884 0.0
H H 0.0782594440038179 1.173239950469249 -0.46106932353768837 0.0
C C -0.19142199466690518 0.7647188141002336 -0.09391406302217771 0.0
H H -0.28983199466690523 0.7735888141002336 -0.07417406302217773 0.0
C C -0.08886849566999912 0.822960149846395 -0.14035930103868208 0.0
C C 0.016071961036705485 0.7996493581616366 -0.16120844149671323 0.0
C C -0.13545941100202272 1.2358410655720664 -0.37171743911489274 0.0
H H -0.2359494110020227 1.2284110655720666 -0.35297743911489277 0.0
C C -0.21923370409261528 0.8417015734617955 -0.1997291749316096 0.0
C C 0.017214159183736418 0.8444150482120606 -0.25689824504513736 0.0
C C -0.2590237212202164 1.0070040704576977 -0.3244415616761087 0.0
H H -0.31454372122021634 1.0427740704576978 -0.31421156167610875 0.0
C C -0.21852644604229976 0.9565199205226387 -0.280083997217101 0.0
H H -0.24683644604229973 0.9649899205226387 -0.23294399721710102 0.0
C C -0.134576187327764 0.9097091388796381 -0.27335506541520205 0.0
C C -0.08214599831322925 0.8914490202360961 -0.3381873348093361 0.0
H H -0.02216599831322924 0.8570190202360962 -0.3500473348093361 0.0
C C -0.1031699121998782 0.9585526822956029 -0.4205498562668608 0.0
H H -0.0714199121998782 0.9519326822956028 -0.4676298562668608 0.0
Cd Cd -0.35610336329688597 -0.5552652025972324 -1.0052475816509594 0.0
O O -0.4223288339176045 -0.4660299696330555 -1.0688736466742426 0.0
O O -0.1958294971072965 -0.49258069287687584 -1.0554870180958629 0.0
O O -0.9043601516348282 -0.7661588117290369 -1.1350604096172132 0.0
O O -0.4221009525021784 -0.7851485556680069 -1.2719160760083197 0.0
N N -0.4370411206837096 -0.6068684891732573 -1.0684990527093594 0.0
N N -0.5645320050947746 -0.7708825535277184 -1.194911770664986 0.0
C C -0.3248321164270072 -0.46632250521822144 -1.093246847233985 0.0
C C -0.22621726937054323 -0.41423723077778823 -1.1475509104207404 0.0
C C -0.22749963056304534 -0.42888174963373404 -1.1961210207014963 0.0
H H -0.15258963056304528 -0.45974174963373404 -1.1834810207014963 0.0
C C -0.032471214351918166 -0.3668194673914294 -1.2436414638609528 0.0
H H 0.0664387856480818 -0.3673794673914294 -1.265301463860953 0.0
C C -0.23363607342842194 -0.3486339202450793 -1.2576453433353694 0.0
C C -0.3723382935769607 -0.3293686617689872 -1.2179454923463453 0.0
C C -0.4333617638440245 -0.3509476562651926 -1.1774294257971112 0.0
H H -0.5309717638440247 -0.3489176562651926 -1.1548994257971112 0.0
C C -0.4724519635445484 -0.8099091042452329 -1.248702268880396 0.0
C C -0.7428710751755706 -0.7851857963834161 -1.2000354231137378 0.0
C C -0.5485892469493342 -0.682090287263021 -1.016754192287618 0.0
H H -0.5769992469493342 -0.6793602872630211 -0.9686241922876181 0.0
C C -0.5955859527521825 -0.6995273694463697 -1.1105878243525735 0.0
H H -0.6663959527521824 -0.7278973694463695 -1.0920478243525735 0.0
C C -0.5469699594835008 -0.7082417655228178 -1.1744772072841716 0.0
C C -0.5211914271645013 -0.7023933103794416 -1.1810874658335364 0.0
H H -0.49288142716450134 -0.7025633103794416 -1.2292474658335366 0.0
C C -0.43515041322992776 -0.6159777560111463 -1.1237267114082727 0.0
H H -0.3616604132299278 -0.5874477560111464 -1.1400867114082727 0.0
O O -0.29752418220939436 -0.6406495193498909 -0.9019688577844822 0.0
O O -0.10238047041448788 -0.6365126088149343 -0.9812239046204186 0.0
O O 0.1711998788433364 -0.3636109381851678 -0.7638004118251873 0.0
O O -0.3098111572900592 -0.36845567427842524 -0.643448611698347 0.0
N N -0.14225255214101418 -0.3749021287141637 -0.7403254116382268 0.0
N N -0.2052899179515522 -0.47323878272647446 -0.9244144854803117 0.0
C C -0.13054516951414447 -0.6433779491460241 -0.9614960403426538 0.0
C C -0.12350901383780616 -0.7103762499136359 -0.9020017757507035 0.0
C C 0.10465878830043812 -0.7300166540179637 -0.9478464561006518 0.0
H H 0.1388687883004382 -0.7052866540179639 -0.9851064561006517 0.0
C C -0.26458063337924537 -0.27158018139411044 -0.6065900150752337 0.0
H H -0.3629906333792454 -0.28045018139411043 -0.5868500150752337 0.0
C C -0.13074662790976296 -0.3068806019605989 -0.6455978742790724 0.0
C C -0.06441009752125854 -0.29463457975436763 -0.6665268209896222 0.0
C C -0.09649656116749508 -0.764858773298289 -0.8222732262664094 0.0
H H -0.1969865611674951 -0.7574287732982891 -0.8035332262664094 0.0
C C -0.21895470192723995 -0.3442598385011772 -0.6357951288630019 0.0
C C 0.023347718457341342 -0.31415210063949456 -0.7244628776542157 0.0
C C -0.3020850913519677 -0.5049459497429514 -0.8523774653611282 0.0
H H -0.35760509135196766 -0.5407159497429515 -0.8421474653611283 0.0
C C -0.21952207292582365 -0.4447379993637569 -0.7953923041021876 0.0
H H -0.24783207292582368 -0.4532079993637569 -0.7482523041021877 0.0
C C -0.18364167593042766 -0.4228036294369379 -0.7747610783676803 0.0
C C -0.07603537701754894 -0.41658546249278766 -0.8454910482387965 0.0
H H -0.016055377017548948 -0.3821554624927877 -0.8573510482387965 0.0
C C -0.09155908246261954 -0.4617429859929473 -0.8964084007275251 0.0
H H -0.05980908246261952 -0.4551229859929472 -0.9434884007275252 0.0
Cd Cd 0.36212387165183035 -1.0694755398497375 0.4831861534056623 0.0
O O 0.4730601012577202 -0.9460303475051908 0.5671423317647616 0.0
O O 0.24960469266268145 -1.0048607136870142 0.6144351748486596 0.0
O O 0.8460732867856846 -1.2771742383145466 0.686078318930096 0.0
O O 0.4488088532991556 -1.2564810241386053 0.7239259417649581 0.0
N N 0.45347163749565794 -1.1353651088168584 0.552023918230552 0.0
N N 0.7039209673101631 -1.2537552387820452 0.7091699135035381 0.0
C C 0.27168765091652847 -0.9555078466283645 0.6212909927850059 0.0
C C 0.21661604604836396 -0.9219630495832343 0.6573598215721131 0.0
C C 0.1875068257241822 -0.9370234898557971 0.6906331472718599 0.0
H H 0.11259682572418221 -0.9678834898557973 0.6779931472718599 0.0
C C 0.0747108867192178 -0.8958274922875585 0.7186423042433318 0.0
H H -0.024199113280782215 -0.8963874922875585 0.7403023042433318 0.0
C C 0.19850801849311278 -0.8327589312373125 0.7302688561592763 0.0
C C 0.30855446464574454 -0.8574197906331457 0.721179846883346 0.0
C C 0.37069538707440225 -0.8651516132994057 0.6399796863518655 0.0
H H 0.46830538707440234 -0.8631216132994057 0.6174496863518656 0.0
C C 0.5943307128295164 -1.2825657112402504 0.7811836755408712 0.0
C C 0.8034011142429713 -1.2659786755158482 0.6945350694450406 0.0
C C 0.5942061363088994 -1.1704454221569363 0.5604338816661372 0.0
H H 0.6226161363088996 -1.1677154221569361 0.5123038816661373 0.0
C C 0.6018590426715357 -1.2160830552429973 0.576320488514292 0.0
H H 0.6726690426715357 -1.2444530552429973 0.5577804885142919 0.0
C C 0.5691958496702745 -1.1964176086536342 0.6463247079798836 0.0
C C 0.4369455218556229 -1.1699991321669134 0.7014182434227408 0.0
H H 0.40863552185562285 -1.1701691321669134 0.7495782434227408 0.0
C C 0.4669135474023562 -1.1384776733065733 0.6200233498507138 0.0
H H 0.39342354740235613 -1.1099476733065734 0.6363833498507141 0.0
O O 0.2478478338664219 -1.1517681182271635 0.4066852123061946 0.0
O O 0.0011964626301204891 -1.1245231178417385 0.49969605144022444 0.0
O O -0.06835379879490217 -0.8361143636482691 0.27578265939928137 0.0
O O 0.32328326291368087 -0.8820604171278601 0.18345437743302023 0.0
N N 0.047903249965379965 -0.8768134415768768 0.2442570361174515 0.0
N N 0.26062125613922754 -0.9829244473420398 0.398192964358199 0.0
C C 0.08980771398944536 -1.1519259543413878 0.45489383164497177 0.0
C C 0.025874193165484123 -1.204716252787257 0.4262620044889478 0.0
C C -0.0844697293597783 -1.2153856396764298 0.4460961164542055 0.0
H H -0.11867972935977829 -1.1906556396764298 0.4833561164542055 0.0
C C 0.24887806057224657 -0.801328838551443 0.05650906362931803 0.0
H H 0.34728806057224654 -0.810198838551443 0.03676906362931806 0.0
C C 0.15560385245702454 -0.7935651907624615 0.1279857252693261 0.0
C C -0.0013871004700346768 -0.7991530907146845 0.15016145058089805 0.0
C C 0.15372752400465278 -1.2323757473486614 0.32979590226262995 0.0
H H 0.25421752400465275 -1.2249457473486616 0.31105590226262997 0.0
C C 0.18170533806991218 -0.874051014325692 0.18120829594624796 0.0
C C -0.015155098240131422 -0.8098239800427519 0.21689807676107498 0.0
C C 0.2775542530556452 -1.0135122369383363 0.3355449344873539 0.0
H H 0.3330742530556452 -1.0492822369383363 0.325314934487354 0.0
C C 0.21846972861240802 -0.9603557677051299 0.27237182270928795 0.0
H H 0.24677972861240802 -0.9688257677051298 0.22523182270928796 0.0
C C 0.15510676805395024 -0.9042637849091787 0.2982204598592501 0.0
C C 0.07622907508079535 -0.9053461584293105 0.34019893037319027 0.0
H H 0.016249075080795355 -0.8709161584293107 0.3520589303731903 0.0
C C 0.16316735951193387 -0.9508744182172353 0.4195570193046076 0.0
H H 0.13141735951193387 -0.9442544182172352 0.46663701930460755 0.0
_cell_length_a 8.39304
_cell_length_b 22.23511
_cell_length_c 18.74218
_cell_angle_alpha 90.0
_cell_angle_beta 94.0312
_cell_angle_gamma 90.0
_symmetry_space_group_name_H-M         'P 1'
_symmetry_Int_Tables_number            1
loop_
_symmetry_equiv_pos_as_xyz
   'x, y, z'
                         
loop_
_atom_site_label
_atom_site_type_symbol
_atom_site_fract_x 
_atom_site_fract_y
_atom_site_fract_z
_atom_site_charge
Cd Cd 0.3269062115055628 0.5438086274901911 0.9999155817478684 0.0
O O 0.3626805435151849 0.4532813300766974 1.0373809814809423 0.0
O O 0.16474004302396367 0.4876515262145116 1.089367229583097 0.0
O O 0.9650783905603931 0.7487994402347007 1.152226164731295 0.0
O O 0.3904200578296432 0.7999804095353358 1.2439376628822456 0.0
N N 0.4495879328232758 0.6143751834763997 1.060513866845284 0.0
N N 0.6541610736343698 0.7668661652822459 1.2107408542956206 0.0
C C 0.3343824975712734 0.4609219183908094 1.0822548149764635 0.0
C C 0.31549009599388533 0.4153294701922542 1.1595632901357775 0.0
C C 0.15912790423818235 0.4052886046729154 1.1942649259426024 0.0
H H 0.0842179042381823 0.43614860467291544 1.1816249259426022 0.0
C C 0.17953031080919757 0.38959521622078125 1.2281151263424734 0.0
H H 0.08062031080919756 0.39015521622078125 1.2497751263424735 0.0
C C 0.1328323797097494 0.3334282366008934 1.292958371042791 0.0
C C 0.31935670771020414 0.3313446256131302 1.2306499609603692 0.0
C C 0.352431791633027 0.38664250188291 1.1351766871138866 0.0
H H 0.4500417916330271 0.38461250188291 1.1126466871138867 0.0
C C 0.5374170218852153 0.7742980393822556 1.2571517433921695 0.0
C C 0.8122859291561882 0.77997074058217 1.1946679975283447 0.0
C C 0.5365085259335084 0.6651262383045902 1.0543029710984062 0.0
H H 0.5649185259335084 0.6623962383045902 1.0061729710984062 0.0
C C 0.6185651878698022 0.7138005216170908 1.0823045825526283 0.0
H H 0.6893751878698022 0.7421705216170909 1.0637645825526283 0.0
C C 0.56592515231961 0.7058976291059047 1.1391445780867167 0.0
C C 0.5303529218572826 0.6959257397824898 1.1363166240929279 0.0
H H 0.5020429218572826 0.6960957397824898 1.1844766240929279 0.0
C C 0.5208776399803428 0.6180301460369867 1.1369617082932597 0.0
H H 0.4473876399803427 0.5895001460369867 1.1533217082932599 0.0
O O 0.3007869946813136 0.6352608343144012 0.8977185664492243 0.0
O O 0.14036669053691953 0.6224807843066069 0.9935836907676577 0.0
O O -0.1282065981413309 0.3785605134074571 0.7428248648007744 0.0
O O 0.44059902767165054 0.371807712438811 0.6705809125578365 0.0
N N 0.10548914826665337 0.3831826703556861 0.7392155695168582 0.0
N N 0.2153551030929697 0.4883036870698473 0.8855538383991197 0.0
C C 0.09455050258214837 0.6689232873585401 0.927379427108691 0.0
C C 0.020881063799720243 0.6984401745948516 0.9355400123159056 0.0
C C -0.05967926185975094 0.7204200030468866 0.917407334383387 0.0
H H -0.09388926185975095 0.6956900030468867 0.9546673343833868 0.0
C C 0.19660292725530198 0.2763365700826335 0.5765126081239105 0.0
H H 0.29501292725530204 0.28520657008263356 0.5567726081239105 0.0
C C 0.149982730644442 0.2962754001815169 0.615456950905854 0.0
C C 0.0038182212577109824 0.2724689527711444 0.7039235612195457 0.0
C C 0.018949237791101893 0.7356359345961515 0.846170601451241 0.0
H H 0.11943923779110195 0.7282059345961516 0.8274306014512411 0.0
C C 0.13659462757367788 0.36389738796585264 0.6673662705173922 0.0
C C 0.011988768492803248 0.33347222956141054 0.708385451250011 0.0
C C 0.20513247450313846 0.4900330106809138 0.8068023326601323 0.0
H H 0.2606524745031384 0.525803010680914 0.7965723326601324 0.0
C C 0.20551874774789228 0.4757672498135135 0.8217789160503881 0.0
H H 0.23382874774789225 0.48423724981351346 0.7746389160503881 0.0
C C 0.13096086409433952 0.4106457936243249 0.781017123271629 0.0
C C 0.1081500663780633 0.4076427250502621 0.8370513338501172 0.0
H H 0.04817006637806331 0.3732127250502621 0.8489113338501173 0.0
C C 0.13895124011138033 0.46647909340659277 0.8889515042322487 0.0
H H 0.10720124011138031 0.45985909340659276 0.9360315042322487 0.0
Cd Cd -0.3107791923123184 1.0593552959082686 -0.4775658694596592 0.0
O O -0.44449717108976006 0.9642241980580343 -0.586031732125642 0.0
O O -0.20641426890872264 1.0253671800736601 -0.5734874680161317 0.0
O O -0.9442317681919742 1.2953881358230825 -0.6522546688290618 0.0
O O -0.3673196035500585 1.2846649324753918 -0.7853069575194439 0.0
N N -0.4407441831995583 1.127415052658302 -0.5526090960668542 0.0
N N -0.6700617220208673 1.2548618296758471 -0.7083302237288454 0.0
C C -0.3063242669798662 0.9774626912079687 -0.5909511775863723 0.0
C C -0.29249214492856096 0.918426281670904 -0.6549819434032071 0.0
C C -0.13206480891579656 0.9308721315813765 -0.6957587762624772 0.0
H H -0.05715480891579655 0.9617321315813767 -0.6831187762624772 0.0
C C -0.0616829477816168 0.8711008816531421 -0.7366589146418577 0.0
H H 0.03722705221838321 0.8716608816531421 -0.7583189146418577 0.0
C C -0.20843322097057274 0.8330199722210102 -0.755478362452005 0.0
C C -0.2901049081807687 0.8593994317147835 -0.7144082656599925 0.0
C C -0.32835354177249004 0.880326765621398 -0.6711242419558582 0.0
H H -0.42596354177249024 0.878296765621398 -0.6485942419558581 0.0
C C -0.5270150155528115 1.3088106553719951 -0.7206005662083561 0.0
C C -0.8188210312183836 1.289497689408341 -0.69582692892105 0.0
C C -0.6131638477520663 1.17314688465876 -0.5604977464438327 0.0
H H -0.6415738477520665 1.17041688465876 -0.5123677464438328 0.0
C C -0.5583993891497858 1.1973171214356686 -0.5755215530388627 0.0
H H -0.629209389149786 1.2256871214356686 -0.5569815530388627 0.0
C C -0.5996045515941688 1.2264419412463574 -0.6787911206396227 0.0
C C -0.4549198360815923 1.1674603354762854 -0.6682926272223982 0.0
H H -0.42660983608159225 1.1676303354762856 -0.7164526272223981 0.0
C C -0.419643552575423 1.11438343312625 -0.6531476009794961 0.0
H H -0.346153552575423 1.0858534331262502 -0.6695076009794962 0.0
O O -0.2332938288585904 1.1585386487801128 -0.3973529521761995 0.0
O O -0.11263116543079676 1.1153343318596964 -0.4872414918306094 0.0
O O 0.17113101669801434 0.8555546335366472 -0.29306406643278166 0.0
O O -0.34869949001576195 0.8470633306263958 -0.1907642749908272 0.0
N N -0.06518470356016573 0.8359702182117851 -0.2398797975000404 0.0
N N -0.24282759248860217 1.0060221782110994 -0.40137884666503887 0.0
C C -0.12869125065222814 1.167536547417141 -0.4508591131353073 0.0
C C -0.03719250175283556 1.2160245341789069 -0.3788898245886008 0.0
C C 0.10075936150565025 1.2086868059975682 -0.44315252692105367 0.0
H H 0.13496936150565025 1.1839568059975683 -0.4804125269210537 0.0
C C -0.14637095506138964 0.7596593786380657 -0.09069436719212676 0.0
H H -0.24478095506138967 0.7685293786380657 -0.07095436719212679 0.0
C C -0.16774446602852158 0.81963453718917 -0.11596671839186466 0.0
C C 0.0046178179869968165 0.7880787034147426 -0.18412063031800577 0.0
C C -0.10089494132410144 1.2379795299341438 -0.3335569875811888 0.0
H H -0.2013849413241014 1.230549529934144 -0.3148169875811888 0.0
C C -0.17417593813935722 0.8436487974153183 -0.20572395299653287 0.0
C C 0.04291017601314294 0.8542364897736617 -0.2487996474945021 0.0
C C -0.21835018216855176 0.9890207940519153 -0.33530751265013864 0.0
H H -0.27387018216855175 1.0247907940519154 -0.3250775126501387 0.0
C C -0.2012575593566326 0.9791632927442371 -0.27122455830599873 0.0
H H -0.22956755935663262 0.9876332927442371 -0.22408455830599877 0.0
C C -0.17472432485758926 0.924451522253253 -0.27626379635493215 0.0
C C -0.04421903956093827 0.8908676676490528 -0.3599954439061758 0.0
H H 0.01576096043906173 0.8564376676490529 -0.37185544390617586 0.0
C C -0.1337889007956967 0.9377337194627551 -0.3941366177893489 0.0
H H -0.10203890079569668 0.931113719462755 -0.44121661778934884 0.0
Cd Cd -0.3565919796631604 -0.5556899520779122 -0.9890331124528345 0.0
O O -0.4406360618488321 -0.47505428050132825 -1.0552583696687479 0.0
O O -0.21533543430142513 -0.48827719378251005 -1.071215273743971 0.0
O O -0.88285313250048 -0.7553219249078821 -1.152007398701496 0.0
O O -0.44012485156284026 -0.7657614092401441 -1.3064262939703628 0.0
N N -0.43213233415763896 -0.61896872879562 -1.0458710484990839 0.0
N N -0.6261501511258278 -0.752439343584385 -1.1744968693844937 0.0
C C -0.2576688514032277 -0.4631648353807937 -1.085944983859674 0.0
C C -0.27109544423974613 -0.41342844880544577 -1.1389881008314702 0.0
C C -0.1342001940503165 -0.44070946117596643 -1.1976733325769557 0.0
H H -0.05929019405031645 -0.47156946117596643 -1.1850333325769555 0.0
C C -0.1228366937764527 -0.42425254604462126 -1.223768679404346 0.0
H H -0.023926693776452672 -0.42481254604462126 -1.245428679404346 0.0
C C -0.2008540120558675 -0.34277599808698894 -1.263340978864326 0.0
C C -0.37240393800841043 -0.3529029982280338 -1.2302851023523418 0.0
C C -0.43177485709218133 -0.37857443606648916 -1.1455916410571327 0.0
H H -0.5293848570921814 -0.3765444360664892 -1.1230616410571326 0.0
C C -0.5432560777945136 -0.7941930224705755 -1.261522434379344 0.0
C C -0.8062011002455318 -0.7647169887115716 -1.179219602731066 0.0
C C -0.5770657884266382 -0.6713900509919938 -1.0613735942329239 0.0
H H -0.6054757884266383 -0.6686600509919938 -1.013243594232924 0.0
C C -0.5491220352998027 -0.709136345632899 -1.0816586667198926 0.0
H H -0.6199320352998029 -0.737506345632899 -1.0631186667198929 0.0
C C -0.632944214126673 -0.7215192802946524 -1.1868687176288264 0.0
C C -0.4669632389095995 -0.6408208583788467 -1.1769332318633234 0.0
H H -0.4386532389095996 -0.6409908583788467 -1.2250932318633236 0.0
C C -0.46195295556776794 -0.6422953293955387 -1.1306280559266266 0.0
H H -0.38846295556776794 -0.6137653293955386 -1.1469880559266266 0.0
O O -0.2343624809370636 -0.6417844645582497 -0.8996576674451044 0.0
O O -0.12886481053291374 -0.6312452251739056 -0.9999312761346114 0.0
O O 0.2351572156756956 -0.3352680829403768 -0.7658001622346899 0.0
O O -0.28784983603401587 -0.38420380598201403 -0.6573062957292205 0.0
N N -0.056040942114110745 -0.37556181220867735 -0.7577014667008635 0.0
N N -0.23060018645131347 -0.49185367174869193 -0.8754661287090824 0.0
C C -0.06853322324292468 -0.6594450872682416 -0.9213401140606491 0.0
C C -0.019027865661659826 -0.7111663593841034 -0.9195469374667609 0.0
C C 0.05861225573652345 -0.7411285821467812 -0.9392176242854752 0.0
H H 0.09282225573652349 -0.7163985821467812 -0.976477624285475 0.0
C C -0.19238185756596476 -0.2719488819733342 -0.597316228740884 0.0
H H -0.29079185756596476 -0.28081888197333427 -0.577576228740884 0.0
C C -0.17917671384202216 -0.3133639786025135 -0.6174423126641996 0.0
C C -0.01717248416058193 -0.28067899788966044 -0.6655809093192583 0.0
C C -0.08306395904346317 -0.7514973957829281 -0.8505267985633908 0.0
H H -0.18355395904346322 -0.7440673957829281 -0.8317867985633908 0.0
C C -0.25985533299611285 -0.3570768710729622 -0.6889009340114319 0.0
C C -0.026157117288979858 -0.3243636134243569 -0.7418984718806076 0.0
C C -0.25791463315796775 -0.5033644476176183 -0.8652209827859918 0.0
H H -0.31343463315796777 -0.5391344476176184 -0.8549909827859918 0.0
C C -0.17588922078606742 -0.4853692135763704 -0.7654392654968857 0.0
H H -0.20419922078606742 -0.4938392135763704 -0.7182992654968857 0.0
C C -0.15498001738139813 -0.4125883475081796 -0.7802945387532011 0.0
C C -0.12326087302056254 -0.38945832603325214 -0.8764243771987114 0.0
H H -0.06328087302056257 -0.35502832603325213 -0.8882843771987115 0.0
C C -0.10364580045050306 -0.4584045068135309 -0.9127375651133341 0.0
H H -0.07189580045050303 -0.4517845068135309 -0.9598175651133342 0.0
Cd Cd 0.3543243423933578 -1.06479884539965 0.4762454557176979 0.0
O O 0.419556373407971 -0.9540774682370016 0.55985630718687 0.0
O O 0.2270813574705667 -1.0281712355633903 0.5869925728173954 0.0
O O 0.892830379092538 -1.2818516807865257 0.6693487394024874 0.0
O O 0.4586771245169341 -1.2685754883237366 0.7395544123624991 0.0
N N 0.3954817999205883 -1.1209830976195534 0.5625986054106995 0.0
N N 0.6745547828414967 -1.2829526382462157 0.720139246291958 0.0
C C 0.3339229234820909 -0.9511826453060217 0.5748619190612743 0.0
C C 0.25115839315660043 -0.9248869969778739 0.6429511115201941 0.0
C C 0.15486804163002088 -0.9178341043476335 0.669177580882694 0.0
H H 0.07995804163002088 -0.9486941043476337 0.656537580882694 0.0
C C 0.06123394365001497 -0.8661931164676007 0.754380966297547 0.0
H H -0.03767605634998506 -0.8667531164676007 0.776040966297547 0.0
C C 0.2706111663590408 -0.8386179677036428 0.7733543964262692 0.0
C C 0.3791192577039542 -0.8328035865529481 0.711799538206004 0.0
C C 0.34748219367897915 -0.8905764827539061 0.6646382015600063 0.0
H H 0.4450921936789793 -0.8885464827539061 0.6421082015600063 0.0
C C 0.5214427528101369 -1.304124597762863 0.72541043223178 0.0
C C 0.7707423404350742 -1.283080110332734 0.7151735253708974 0.0
C C 0.5154719303685124 -1.1645499947089701 0.5251477596835598 0.0
H H 0.5438819303685124 -1.16181999470897 0.47701775968355986 0.0
C C 0.562790741810287 -1.2237333142172695 0.5809298160944756 0.0
H H 0.6336007418102871 -1.2521033142172695 0.5623898160944756 0.0
C C 0.5891491667959191 -1.2150988623978711 0.6520614999898835 0.0
C C 0.5358593817147594 -1.1805164024123247 0.6634869734265397 0.0
H H 0.5075493817147595 -1.1806864024123247 0.7116469734265397 0.0
C C 0.38762662214434573 -1.0971676318633972 0.6366204367682657 0.0
H H 0.3141366221443457 -1.068637631863397 0.6529804367682659 0.0
O O 0.28168697194189934 -1.16080232464392 0.41058257241996265 0.0
O O 0.13612462925537758 -1.1417732031399637 0.4869223014733388 0.0
O O -0.19298686761932782 -0.8397978960369488 0.2458793652161538 0.0
O O 0.3055907608380359 -0.8691401216392556 0.1695710567702307 0.0
N N 0.14165411725165472 -0.8613484600051999 0.21598495781256102 0.0
N N 0.19954284859865506 -0.9892097439154846 0.39607223046297974 0.0
C C 0.16066415388464297 -1.1482260925464345 0.4838701463803281 0.0
C C 0.07853432373539061 -1.2078861681208708 0.44021970604917804 0.0
C C -0.03225500419096703 -1.2099262163888553 0.4524982384531398 0.0
H H -0.06646500419096701 -1.1851962163888554 0.48975823845313976 0.0
C C 0.16930625280921827 -0.7622560045927097 0.0919796301637804 0.0
H H 0.26771625280921824 -0.7711260045927097 0.07223963016378042 0.0
C C 0.13048171409679588 -0.794992349297329 0.15460033998980308 0.0
C C -0.018965639804412963 -0.7755332175046297 0.15677382983786156 0.0
C C 0.07915414134835602 -1.2300114751509499 0.32497427162339326 0.0
H H 0.179644141348356 -1.22258147515095 0.3062342716233933 0.0
C C 0.24575593354313993 -0.8353520246275244 0.19893475072675854 0.0
C C -0.05060520416906369 -0.8137501797677337 0.2721044030029676 0.0
C C 0.234531197844801 -0.9792388929335617 0.3302791052894341 0.0
H H 0.29005119784480105 -1.0150088929335617 0.32004910528943414 0.0
C C 0.2284685509800168 -0.9625584050154133 0.2823188490296085 0.0
H H 0.25677855098001684 -0.9710284050154133 0.23517884902960853 0.0
C C 0.114789256954861 -0.909001903627695 0.30045687997911774 0.0
C C 0.12096844663328447 -0.8957537864630759 0.3525707154510924 0.0
H H 0.06098844663328448 -0.861323786463076 0.36443071545109246 0.0
C C 0.16585667697346795 -0.9675935956658586 0.4201709446724574 0.0
H H 0.13410667697346795 -0.9609735956658585 0.4672509446724574 0.0
