_cell_length_a 8.39304
_cell_length_b 22.23511
_cell_length_c 18.74218
_cell_angle_alpha 90.0
_cell_angle_beta 94.0312
_cell_angle_gamma 90.0
_symmetry_space_group_name_H-M         'P 1'
_symmetry_Int_Tables_number            1
loop_
_symmetry_equiv_pos_as_xyz
   'x, y, z'
                         
loop_
_atom_site_label
_atom_site_type_symbol
_atom_site_fract_x 
_atom_site_fract_y
_atom_site_fract_z
_atom_site_charge
Cd Cd 0.302797280772111 0.5521078222686292 0.9792812983647573 0.0
O O 0.4279430232762633 0.4713364654519225 1.0613156799614085 0.0
O O 0.2421549664981214 0.49401828273988446 1.0810186801688646 0.0
O O 0.952806382482611 0.7477506144360955 1.2006369350602633 0.0
O O 0.3188558338697494 0.7543732688548219 1.2577521350890433 0.0
N N 0.4483391583058998 0.6192727595942222 1.069545254049881 0.0
N N 0.6161636933450491 0.7484246538838237 1.2124006584886773 0.0
C C 0.2847934554381914 0.48873944125486557 1.0861353273660097 0.0
C C 0.26838202981929776 0.4084928599594589 1.1539022415963764 0.0
C C 0.08975843274981121 0.39292519788861474 1.1761923258570242 0.0
H H 0.014848432749811187 0.42378519788861474 1.163552325857024 0.0
C C 0.07542015643337466 0.3839210071000085 1.2218554955658547 0.0
H H -0.023489843566625382 0.3844810071000085 1.2435154955658547 0.0
C C 0.18994761647078015 0.3264647796063816 1.2646507753500078 0.0
C C 0.33950653203915526 0.33164876273429317 1.2391242872189836 0.0
C C 0.41863625582726566 0.3570806427816302 1.1939380010148344 0.0
H H 0.5162462558272657 0.35505064278163023 1.1714080010148344 0.0
C C 0.5585755434106027 0.7775542733342901 1.2594926474844665 0.0
C C 0.8305252874920784 0.7953940001459789 1.172512506789802 0.0
C C 0.565148755326031 0.6515636226975525 1.041605616498744 0.0
H H 0.593558755326031 0.6488336226975526 0.993475616498744 0.0
C C 0.6871747506870027 0.7224234176570582 1.0747619994264543 0.0
H H 0.7579847506870028 0.7507934176570581 1.0562219994264543 0.0
C C 0.5917399840859471 0.6870461870889002 1.1564721731481638 0.0
C C 0.4668220859440786 0.6757042107276544 1.1974910116768918 0.0
H H 0.43851208594407864 0.6758742107276544 1.2456510116768917 0.0
C C 0.4446756453662996 0.6276864757956424 1.1200366931867858 0.0
H H 0.37118564536629955 0.5991564757956424 1.1363966931867857 0.0
O O 0.29987355144466926 0.6444732212540585 0.897453098317512 0.0
O O 0.06582040941654234 0.591731725748433 1.0050821230432354 0.0
O O -0.24380774908079703 0.3143903929100122 0.7391087654315925 0.0
O O 0.3240644174165989 0.3169294128577649 0.679204250475903 0.0
N N 0.10955840842857117 0.36847361116934174 0.738408206329445 0.0
N N 0.2606038432085219 0.5058006322033686 0.896817180598888 0.0
C C 0.15664017040796774 0.6491121068731763 0.9480395556395712 0.0
C C 0.1025430776765326 0.7149831318882142 0.9165473382125522 0.0
C C -0.13626517693418608 0.7029540523981114 0.9561210582822354 0.0
H H -0.1704751769341861 0.6782240523981115 0.9933810582822352 0.0
C C 0.23214267646637818 0.2513652990410064 0.6218388242056743 0.0
H H 0.33055267646637815 0.2602352990410064 0.6020988242056743 0.0
C C 0.15515143708105075 0.29596800080602165 0.6200929328048029 0.0
C C -0.018884941308115754 0.27963603161652384 0.7008832773329053 0.0
C C 0.19097449411137712 0.7435470470554851 0.8628309040182 0.0
H H 0.2914644941113772 0.7361170470554851 0.8440909040182001 0.0
C C 0.188774790118185 0.36521947847809316 0.6780624520742172 0.0
C C 0.019538497494265006 0.33818865226723377 0.7096686077550803 0.0
C C 0.2581406033929369 0.5068934801399403 0.8320680352737456 0.0
H H 0.31366060339293683 0.5426634801399405 0.8218380352737457 0.0
C C 0.27629367430512247 0.46374750143788585 0.7736177636522813 0.0
H H 0.3046036743051225 0.4722175014378858 0.7264777636522814 0.0
C C 0.1401244039899428 0.4069966985472875 0.7931104431479313 0.0
C C 0.14363252686249758 0.38664937952079803 0.8630957449347065 0.0
H H 0.0836525268624976 0.352219379520798 0.8749557449347066 0.0
C C 0.19031498434430702 0.4334469239311773 0.9190179024880962 0.0
H H 0.158564984344307 0.4268269239311772 0.9660979024880963 0.0
Cd Cd -0.2966221580727054 1.070809355759758 -0.47806023392532443 0.0
O O -0.4288270693805835 0.9570878100575196 -0.5408876912919657 0.0
O O -0.23344784644889938 1.021264985903966 -0.6015102761376946 0.0
O O -0.9400422159040897 1.2895458208498476 -0.6315796635162804 0.0
O O -0.3386178812112875 1.2766852472016994 -0.7752770252679605 0.0
N N -0.4640451562565778 1.1214604716190706 -0.5596922856316026 0.0
N N -0.6520688228846387 1.2949996943463105 -0.6891364649532127 0.0
C C -0.24992903767163863 0.9697872683555604 -0.5756402041826018 0.0
C C -0.2788621747451334 0.9182530497117922 -0.6559626336126367 0.0
C C -0.14731620036289747 0.9052250733755081 -0.6576847132054832 0.0
H H -0.07240620036289748 0.9360850733755083 -0.6450447132054832 0.0
C C -0.1364357579857079 0.8705758664339149 -0.7323079340229415 0.0
H H -0.03752575798570787 0.8711358664339149 -0.7539679340229414 0.0
C C -0.218909720785871 0.8586944473990571 -0.7696102577118836 0.0
C C -0.38588326694857433 0.8420842538105585 -0.7339998231838571 0.0
C C -0.40444169626842336 0.8687338073737134 -0.6807072640135357 0.0
H H -0.5020516962684235 0.8667038073737134 -0.6581772640135356 0.0
C C -0.6068539245829899 1.2898489825829464 -0.7267978489824676 0.0
C C -0.8007207693507365 1.3221599224505582 -0.7030254880290018 0.0
C C -0.5178546657711948 1.1463784539356827 -0.5451815810375867 0.0
H H -0.5462646657711948 1.1436484539356826 -0.4970515810375869 0.0
C C -0.6689378551982356 1.1937582006742586 -0.595175062335157 0.0
H H -0.7397478551982357 1.2221282006742586 -0.5766350623351569 0.0
C C -0.5511993782356019 1.1987612125277882 -0.6900352806246076 0.0
C C -0.5918629809702821 1.2014098568121596 -0.6743869479521956 0.0
H H -0.5635529809702821 1.2015798568121598 -0.7225469479521955 0.0
C C -0.5060991773136748 1.1202603009315943 -0.6115757336900848 0.0
H H -0.43260917731367476 1.0917303009315944 -0.627935733690085 0.0
O O -0.2576413138829695 1.1545615169309587 -0.4031751974730726 0.0
O O -0.10668343340347597 1.1116029225498931 -0.5016571987194992 0.0
O O 0.07952890032654693 0.8454210579807838 -0.26293372566585993 0.0
O O -0.3485543690978748 0.8938815623649131 -0.15327179677045014 0.0
N N -0.07638931928463545 0.8443166020630417 -0.2508826633456276 0.0
N N -0.25691100509190257 0.976360319008288 -0.3979697710638137 0.0
C C -0.19745048074123936 1.169211236506586 -0.4586103407386657 0.0
C C -0.019904740398789967 1.2239889705661984 -0.4079907798793024 0.0
C C 0.1071930630082614 1.2403619657226024 -0.45587035602272297 0.0
H H 0.1414030630082614 1.2156319657226025 -0.4931303560227229 0.0
C C -0.18086744468579877 0.7356354488643438 -0.0933088052921684 0.0
H H -0.2792774446857988 0.7445054488643439 -0.07356880529216842 0.0
C C -0.14190191513323774 0.8008435901045223 -0.13038119504882204 0.0
C C 0.03130196231093548 0.7703595530872502 -0.1876616920058559 0.0
C C -0.13523346127637978 1.2145053742267873 -0.3727957226968997 0.0
H H -0.23572346127637975 1.2070753742267875 -0.3540557226968997 0.0
C C -0.1293292489727019 0.847609444674931 -0.18031235439172444 0.0
C C 0.025318614905951924 0.8551772684775863 -0.21998137367087786 0.0
C C -0.25573687048651556 0.9988292196898769 -0.32811636056002064 0.0
H H -0.3112568704865155 1.034599219689877 -0.3178863605600207 0.0
C C -0.22463455119416403 0.9701668829353179 -0.29375400902291204 0.0
H H -0.25294455119416404 0.9786368829353179 -0.24661400902291208 0.0
C C -0.18879354878882998 0.897517751797417 -0.2816499786800404 0.0
C C -0.11450552325052056 0.9088188776222043 -0.3719565445829027 0.0
H H -0.054525523250520576 0.8743888776222043 -0.38381654458290276 0.0
C C -0.12400623996367391 0.9415377818967648 -0.42862267116383646 0.0
H H -0.09225623996367391 0.9349177818967648 -0.47570267116383647 0.0
Cd Cd -0.31772518494166146 -0.5748153414484176 -0.9753595757225522 0.0
O O -0.4341003446786826 -0.4697141617312242 -1.0567185845855869 0.0
O O -0.22000299606759072 -0.4909920082148467 -1.0914368524278975 0.0
O O -0.9215239953959945 -0.7690562803712122 -1.1299369207051966 0.0
O O -0.3580227645215454 -0.7732768259891619 -1.2698684436417509 0.0
N N -0.46227314006239234 -0.617276919038868 -1.0773922046419349 0.0
N N -0.6739092764946437 -0.7551104451117671 -1.1962065966211777 0.0
C C -0.3613384905874653 -0.4607343651822678 -1.080356325569683 0.0
C C -0.284145733140733 -0.4288869259263394 -1.1488251581269566 0.0
C C -0.11929554497913966 -0.4488378542815478 -1.2176707006467242 0.0
H H -0.0443855449791396 -0.4796978542815478 -1.205030700646724 0.0
C C -0.07565233101936011 -0.4128812320057101 -1.2096533582148385 0.0
H H 0.023257668980639884 -0.4134412320057101 -1.2313133582148386 0.0
C C -0.21438850484204763 -0.3233737130943179 -1.2379520772003663 0.0
C C -0.3115728120910859 -0.34555432452386736 -1.2050573725758686 0.0
C C -0.38390518821130143 -0.3628496953800533 -1.202032674301491 0.0
H H -0.4815151882113015 -0.3608196953800533 -1.179502674301491 0.0
C C -0.5665008375411296 -0.8127463430094818 -1.2877141682292812 0.0
C C -0.8130815903282449 -0.795970029741225 -1.2064505650889503 0.0
C C -0.5583077642768198 -0.6628190641682331 -1.0433979081338667 0.0
H H -0.5867177642768199 -0.6600890641682332 -0.9952679081338669 0.0
C C -0.5548401359063749 -0.7088163995728483 -1.073290178408524 0.0
H H -0.625650135906375 -0.7371863995728483 -1.054750178408524 0.0
C C -0.576175091513245 -0.7151226222347334 -1.1589383727260245 0.0
C C -0.49764543664988886 -0.6596345168451153 -1.1901676492186317 0.0
H H -0.4693354366498888 -0.6598045168451153 -1.238327649218632 0.0
C C -0.45432009268326057 -0.6268845330279325 -1.1360614177392796 0.0
H H -0.3808300926832605 -0.5983545330279325 -1.1524214177392798 0.0
O O -0.2548226999341817 -0.6283319002006179 -0.9104781884860921 0.0
O O -0.06901958096044389 -0.6447458245619039 -0.9751881452603863 0.0
O O 0.21847953962116928 -0.32099910674030174 -0.7639622985400207 0.0
O O -0.3376943463300311 -0.3785051746087067 -0.6778084428386191 0.0
N N -0.1317058882421954 -0.3733329189015714 -0.7449567748141533 0.0
N N -0.23047919977362483 -0.4958582887210213 -0.8888644852388607 0.0
C C -0.1138159988524806 -0.6329327418574652 -0.9412167895911455 0.0
C C -0.06116781515453045 -0.726976936593508 -0.8930303974552567 0.0
C C 0.03364289978750137 -0.7301225332329059 -0.9482936295268579 0.0
H H 0.0678528997875014 -0.705392533232906 -0.9855536295268578 0.0
C C -0.19679468079948736 -0.2676081529231825 -0.5725651511458874 0.0
H H -0.29520468079948736 -0.27647815292318256 -0.5528251511458873 0.0
C C -0.17690761643308636 -0.31798931791508034 -0.6187376800466123 0.0
C C 0.02369628205836052 -0.2807663222017324 -0.6735816790783481 0.0
C C -0.13453369722392763 -0.7360647888701921 -0.843511419511954 0.0
H H -0.23502369722392769 -0.7286347888701921 -0.824771419511954 0.0
C C -0.19626528890494405 -0.3524640245116212 -0.702085942433606 0.0
C C 0.07800575011381596 -0.33518168589177966 -0.7367104522402709 0.0
C C -0.21655667219210709 -0.5119990327302559 -0.8377724112308924 0.0
H H -0.27207667219210707 -0.547769032730256 -0.8275424112308924 0.0
C C -0.22083432714654352 -0.46189221122852037 -0.7861700463879301 0.0
H H -0.24914432714654353 -0.47036221122852034 -0.7390300463879301 0.0
C C -0.1298643794607012 -0.41863751672493926 -0.7685163017176754 0.0
C C -0.04881184693632428 -0.4178283940367117 -0.8505941810843278 0.0
H H 0.011168153063675678 -0.3833983940367117 -0.8624541810843279 0.0
C C -0.1345109391243927 -0.44630731503087506 -0.8919514904048736 0.0
H H -0.10276093912439267 -0.43968731503087505 -0.9390314904048737 0.0
Cd Cd 0.33579841991048903 -1.0567176430362843 0.4870462339742528 0.0
O O 0.4595930932766634 -0.9658945115167471 0.5442352659858212 0.0
O O 0.17731449492625806 -0.9887438683499972 0.5900912329387549 0.0
O O 0.8679374171757845 -1.2680291342633063 0.6660053338950294 0.0
O O 0.41051588038253 -1.2886949354335169 0.8039161242883298 0.0
N N 0.482672962620935 -1.1056800808756038 0.5739293052130875 0.0
N N 0.5787836884233617 -1.2514833198770747 0.6963793299466154 0.0
C C 0.2902231834810069 -0.9770163952110107 0.5731654971904836 0.0
C C 0.25105266307225244 -0.9310318107880841 0.6731119515536964 0.0
C C 0.11687633063151243 -0.8959930172040771 0.6866903234063242 0.0
H H 0.041966330631512436 -0.9268530172040773 0.6740503234063242 0.0
C C 0.23415974840061735 -0.9063441797639142 0.6945101999742442 0.0
H H 0.13524974840061732 -0.9069041797639142 0.7161701999742442 0.0
C C 0.2350885279216094 -0.8211311998603068 0.7621894225246223 0.0
C C 0.4090462029832207 -0.847373469966128 0.74638169044058 0.0
C C 0.3667789149435078 -0.8658337774354193 0.6462519811318443 0.0
H H 0.46438891494350787 -0.8638037774354194 0.6237219811318443 0.0
C C 0.49818144465488273 -1.300533783719956 0.7902721897846724 0.0
C C 0.7762782625558875 -1.2805520783265185 0.6742995921096921 0.0
C C 0.5776698114781068 -1.1484845778835844 0.5614672460462723 0.0
H H 0.606079811478107 -1.1457545778835843 0.5133372460462725 0.0
C C 0.6544554157112565 -1.2068966844513338 0.5672620351611628 0.0
H H 0.7252654157112566 -1.2352666844513338 0.5487220351611627 0.0
C C 0.549245168880083 -1.2191321180471113 0.6602950216559486 0.0
C C 0.4578862855385472 -1.194167858307141 0.6854833866975758 0.0
H H 0.42957628553854715 -1.194337858307141 0.7336433866975758 0.0
C C 0.43357950431303866 -1.124195308658281 0.6388946069658828 0.0
H H 0.3600895043130386 -1.095665308658281 0.655254606965883 0.0
O O 0.2506571029664941 -1.150195464559722 0.37580177025632633 0.0
O O 0.0709835879780103 -1.138277790466654 0.5029760316251002 0.0
O O -0.11754703809306548 -0.8247229233334982 0.2288482279716276 0.0
O O 0.3416201153479797 -0.8616518658452049 0.16484226559374993 0.0
N N 0.1348138751394913 -0.8634735067576806 0.21102150376146087 0.0
N N 0.22272063575884615 -1.0131651230557097 0.40080026566199184 0.0
C C 0.1616746084306868 -1.1472713594311208 0.43896950282943287 0.0
C C 0.06183454770583937 -1.212501421968203 0.3946918008891811 0.0
C C -0.08908407706309884 -1.214285321213594 0.42556921399076814 0.0
H H -0.12329407706309882 -1.189555321213594 0.4628292139907682 0.0
C C 0.15898268707923907 -0.7970865263605791 0.08108814386708499 0.0
H H 0.2573926870792391 -0.8059565263605791 0.06134814386708501 0.0
C C 0.14149593357062595 -0.802655416835169 0.13815638341673026 0.0
C C -0.04457659803870063 -0.7969774345860527 0.1957057561984327 0.0
C C 0.1193645245089054 -1.2257538138318798 0.3307087343551302 0.0
H H 0.2198545245089054 -1.2183238138318797 0.3119687343551303 0.0
C C 0.15244319688969213 -0.8535244346485306 0.19621157457388633 0.0
C C -0.08638135283268898 -0.8335249319947281 0.24669616533001001 0.0
C C 0.30217003521422703 -1.0200684028077898 0.34319649355247467 0.0
H H 0.357690035214227 -1.0558384028077898 0.3329664935524747 0.0
C C 0.17550748710778769 -0.9756221082126268 0.2624830196661682 0.0
H H 0.20381748710778771 -0.9840921082126268 0.21534301966616826 0.0
C C 0.17436874868922422 -0.9040875686179954 0.27752471779065785 0.0
C C 0.1431954311391829 -0.9099830737935799 0.3565567506065258 0.0
H H 0.08321543113918291 -0.8755530737935799 0.3684167506065258 0.0
C C 0.20222683544485723 -0.9256934182446074 0.4062297618869187 0.0
H H 0.17047683544485723 -0.9190734182446073 0.4533097618869187 0.0
_cell_length_a 8.39304
_cell_length_b 22.23511
_cell_length_c 18.74218
_cell_angle_alpha 90.0
_cell_angle_beta 94.0312
_cell_angle_gamma 90.0
_symmetry_space_group_name_H-M         'P 1'
_symmetry_Int_Tables_number            1
loop_
_symmetry_equiv_pos_as_xyz
   'x, y, z'
                         
loop_
_atom_site_label
_atom_site_type_symbol
_atom_site_fract_x 
_atom_site_fract_y
_atom_site_fract_z
_atom_site_charge
Cd Cd 0.3527614945434492 0.5505744195894912 1.0037731238954082 0.0
O O 0.46029672429986374 0.45235252814222215 1.0701100143608338 0.0
O O 0.23841725634718078 0.5071640401355353 1.0872110438689653 0.0
O O 0.890066770054544 0.7999176507285634 1.164751962581073 0.0
O O 0.3806142913621734 0.8109387297260571 1.2304760468984455 0.0
N N 0.43736063460267033 0.6163633187282187 1.0693646170218702 0.0
N N 0.5515121438502136 0.770719979160944 1.2082008523731358 0.0
C C 0.3086741573225591 0.45065864132093564 1.0791685430741325 0.0
C C 0.27472348685813763 0.42177475874909715 1.1480041412335065 0.0
C C 0.09886418179830277 0.43317532476089815 1.180427949880077 0.0
H H 0.02395418179830273 0.46403532476089815 1.167787949880077 0.0
C C 0.17375547948013964 0.3742163207070879 1.224989704329827 0.0
H H 0.07484547948013962 0.3747763207070879 1.246649704329827 0.0
C C 0.20286942713915204 0.30841021617331904 1.2525865815374853 0.0
C C 0.35087919079316837 0.3377338022308361 1.2010286868575235 0.0
C C 0.3932575174818434 0.39418370326872665 1.1724211996304188 0.0
H H 0.4908675174818435 0.3921537032687266 1.1498911996304189 0.0
C C 0.5265007718617357 0.7712537239466142 1.2510874446967761 0.0
C C 0.8243343229878131 0.7641724686221679 1.1915810430852605 0.0
C C 0.5814299891175316 0.6629567631276907 1.069258646772589 0.0
H H 0.6098399891175317 0.6602267631276907 1.021128646772589 0.0
C C 0.6681020137467616 0.7088223430592907 1.085594212551671 0.0
H H 0.7389120137467617 0.7371923430592906 1.067054212551671 0.0
C C 0.5852812480838401 0.7113728434882992 1.1400285747575616 0.0
C C 0.5109380654762392 0.667304464640014 1.2012241000021113 0.0
H H 0.48262806547623927 0.667474464640014 1.2493841000021113 0.0
C C 0.3884456834016403 0.618332063583952 1.124528996637117 0.0
H H 0.3149556834016403 0.589802063583952 1.140888996637117 0.0
O O 0.32431257082463216 0.6296428316287075 0.90906816493631 0.0
O O 0.11097751409200765 0.6278865184527893 1.0103824217150257 0.0
O O -0.1216980332613963 0.3184546139057738 0.7755222464442404 0.0
O O 0.28137966775022627 0.3904186377130507 0.6850812119990978 0.0
N N 0.10572038683106282 0.38789023947193824 0.736361075357953 0.0
N N 0.26893931136212046 0.4795137412118001 0.8962931368921381 0.0
C C 0.1665555801246292 0.6640250231695851 0.9386530758916126 0.0
C C 0.02321457208137989 0.6959632448631135 0.9029390495930384 0.0
C C -0.1738313217629052 0.6999652870157853 0.9338110538157209 0.0
H H -0.2080413217629052 0.6752352870157854 0.9710710538157208 0.0
C C 0.22293937833607738 0.2581141374283266 0.6109585794330956 0.0
H H 0.3213493783360774 0.2669841374283266 0.5912185794330956 0.0
C C 0.15348421486854108 0.2935355345248516 0.6370657443413487 0.0
C C 0.020172039259427194 0.29390360364521956 0.6561148127528785 0.0
C C 0.11148038682392442 0.7596155656122725 0.8779451899028341 0.0
H H 0.21197038682392444 0.7521855656122725 0.8592051899028342 0.0
C C 0.219998307442177 0.3646910500450065 0.6695963813375836 0.0
C C -0.025118024964958616 0.3381301847636904 0.7542095008001787 0.0
C C 0.26920821101268816 0.4978839193616267 0.8163318869828987 0.0
H H 0.3247282110126881 0.5336539193616269 0.8061018869828988 0.0
C C 0.17691561263291733 0.44317386158563093 0.7561029157344273 0.0
H H 0.20522561263291733 0.4516438615856309 0.7089629157344274 0.0
C C 0.18584209796460574 0.4080674794993576 0.7855087045278162 0.0
C C 0.07535776167855181 0.40562294125320764 0.8592073293371686 0.0
H H 0.01537776167855181 0.3711929412532076 0.8710673293371687 0.0
C C 0.15347010858574595 0.4357923420878941 0.9347972137163119 0.0
H H 0.12172010858574593 0.42917234208789407 0.981877213716312 0.0
Cd Cd -0.27888228395713094 1.0502913141170103 -0.4789744802214409 0.0
O O -0.3809316211006147 0.9608284795111646 -0.5548142133401683 0.0
O O -0.14117855518134925 1.0110872544387233 -0.5865408199578224 0.0
O O -0.8146742063863991 1.241582702713739 -0.6940391412761697 0.0
O O -0.5518200306044914 1.2713025214497038 -0.7758965291038823 0.0
N N -0.47990531009931336 1.1143701995406121 -0.5665620260500952 0.0
N N -0.6283529015363645 1.2664725092790394 -0.683253286665367 0.0
C C -0.2587403830186967 0.9601702044216736 -0.5782867909003179 0.0
C C -0.26946954374658433 0.9120788932999222 -0.6633254418742606 0.0
C C -0.11680736968818817 0.9392691447928521 -0.6666214617590509 0.0
H H -0.04189736968818818 0.9701291447928523 -0.6539814617590509 0.0
C C -0.09739558642179703 0.8922455818963737 -0.7209780365693695 0.0
H H 0.0015144135782029914 0.8928055818963737 -0.7426380365693694 0.0
C C -0.2661270980186616 0.8580691599548067 -0.7635619722393987 0.0
C C -0.3767789873199983 0.8524212889892689 -0.7116628632135329 0.0
C C -0.3620470356792533 0.8576767608523882 -0.6653606366374027 0.0
H H -0.4596570356792534 0.8556467608523882 -0.6428306366374027 0.0
C C -0.5501980570260021 1.3222563227096544 -0.7457096664419122 0.0
C C -0.8019592101937961 1.2888364068432019 -0.680973446523528 0.0
C C -0.6423820487711147 1.1405901387634259 -0.5679867036662212 0.0
H H -0.6707920487711149 1.1378601387634257 -0.5198567036662213 0.0
C C -0.6603822788000272 1.2106728490303142 -0.5908813934617928 0.0
H H -0.7311922788000274 1.2390428490303143 -0.5723413934617927 0.0
C C -0.5579370246341753 1.2130180681760447 -0.6666788573054256 0.0
C C -0.4905485290676781 1.1597805139084083 -0.6974813229522933 0.0
H H -0.46223852906767804 1.1599505139084083 -0.7456413229522932 0.0
C C -0.43932389753337825 1.1257648642496452 -0.6598137848435199 0.0
H H -0.36583389753337825 1.0972348642496452 -0.6761737848435202 0.0
O O -0.35684421856390747 1.1519859059413662 -0.3900465957876392 0.0
O O -0.0985387125744953 1.1151638281176504 -0.496343488738873 0.0
O O 0.1329924420918012 0.8808351048947272 -0.2767917241964136 0.0
O O -0.34357721957969345 0.8735236897196033 -0.16956114856573656 0.0
N N -0.10562062555833324 0.8736658152623141 -0.18437157074733598 0.0
N N -0.2161426609449833 0.9798983352924905 -0.4001401039802988 0.0
C C -0.07326792098444164 1.1773428922593787 -0.4434284878711564 0.0
C C -0.0863939113688826 1.2227865273816456 -0.4151323047258122 0.0
C C 0.0713774574990959 1.2030774042231038 -0.4286618268234519 0.0
H H 0.10558745749909586 1.178347404223104 -0.46592182682345185 0.0
C C -0.19369921178109564 0.7504864104454341 -0.07358165244049138 0.0
H H -0.2921092117810957 0.7593564104454341 -0.05384165244049141 0.0
C C -0.11084207505383323 0.7901677498028199 -0.16366945609883304 0.0
C C -0.010055637034606569 0.7817614390649638 -0.15692022200667913 0.0
C C -0.1276758615001002 1.2433759810252936 -0.34913570744524924 0.0
H H -0.2281658615001002 1.2359459810252935 -0.33039570744524926 0.0
C C -0.15304049384365712 0.8544084283235764 -0.1734541228533585 0.0
C C 0.05160594878116694 0.8339731820321548 -0.23558232570439192 0.0
C C -0.20443624954078377 0.9965731016872398 -0.3235090045661225 0.0
H H -0.2599562495407837 1.0323431016872398 -0.31327900456612257 0.0
C C -0.19310709641199753 0.9699360779387917 -0.2664714604457269 0.0
H H -0.22141709641199755 0.9784060779387916 -0.2193314604457269 0.0
C C -0.1738159072057342 0.9269843845654423 -0.29778860827539566 0.0
C C -0.05729806708103801 0.8949697893716563 -0.3402671797554489 0.0
H H 0.002681932918961987 0.8605397893716563 -0.35212717975544894 0.0
C C -0.15916101900890076 0.9638800244819515 -0.3941398822055078 0.0
H H -0.12741101900890073 0.9572600244819515 -0.44121988220550773 0.0
Cd Cd -0.31870024711647915 -0.5624058498255153 -0.984493001400555 0.0
O O -0.43518842161447524 -0.46646553451201345 -1.0624689684183626 0.0
O O -0.19734944970560067 -0.5197186952787822 -1.1072283638022982 0.0
O O -0.9555085391998144 -0.7789170782466661 -1.1631635368274464 0.0
O O -0.2633309575243559 -0.8014356861066403 -1.2864401188889665 0.0
N N -0.44081067862583895 -0.6090616230384732 -1.090655373662902 0.0
N N -0.5794747218717663 -0.7927066148186909 -1.2201978152624147 0.0
C C -0.3094023184224328 -0.464993105703912 -1.107301588020938 0.0
C C -0.27698905571094096 -0.4052202418640137 -1.15290046011737 0.0
C C -0.12017231797457255 -0.43083740151543953 -1.197876020085612 0.0
H H -0.045262317974572516 -0.46169740151543953 -1.185236020085612 0.0
C C -0.05611892268135633 -0.3519759954480123 -1.2129008826649608 0.0
H H 0.04279107731864372 -0.3525359954480123 -1.234560882664961 0.0
C C -0.13519388028871787 -0.3399545506241175 -1.2542169694374465 0.0
C C -0.34958441868524465 -0.34475484344094304 -1.2415683259401595 0.0
C C -0.39701430321074727 -0.3883011512529444 -1.1747111039611586 0.0
H H -0.49462430321074735 -0.38627115125294437 -1.1521811039611587 0.0
C C -0.5732212343868137 -0.7885198763910284 -1.2604011543961635 0.0
C C -0.870553556815854 -0.7627175732685294 -1.1871656947755036 0.0
C C -0.5125247690496763 -0.6531387299388102 -1.030301279918069 0.0
H H -0.5409347690496763 -0.6504087299388103 -0.9821712799180692 0.0
C C -0.5437246530584189 -0.7098391300736882 -1.071580402083739 0.0
H H -0.6145346530584188 -0.738209130073688 -1.053040402083739 0.0
C C -0.5841175760687973 -0.7231755714603895 -1.1689112935499324 0.0
C C -0.5054129156102606 -0.6624180067122387 -1.1996300656125216 0.0
H H -0.47710291561026064 -0.6625880067122387 -1.2477900656125218 0.0
C C -0.4161490911807986 -0.6182284090112823 -1.1486450279454221 0.0
H H -0.3426590911807986 -0.5896984090112823 -1.1650050279454223 0.0
O O -0.2778660195533457 -0.6490979621929337 -0.8827283982245158 0.0
O O -0.07443861900647977 -0.60373517404916 -1.0076475672009233 0.0
O O 0.14451232517435803 -0.34175122280913617 -0.7704207280754592 0.0
O O -0.3589924142255653 -0.3751640532821117 -0.7039976504961346 0.0
N N -0.1482897244204628 -0.35934623913602065 -0.7687115203891742 0.0
N N -0.260598375141954 -0.49977812117955817 -0.9091357256866578 0.0
C C -0.16134418992013122 -0.6485394115841668 -0.9515839013524148 0.0
C C -0.024738671104515313 -0.7022153877561365 -0.8872759695622005 0.0
C C 0.21438322919333924 -0.7116667915793968 -0.9458564331611452 0.0
H H 0.24859322919333918 -0.6869367915793969 -0.9831164331611452 0.0
C C -0.22350841347213588 -0.2837988454383823 -0.5892769916112208 0.0
H H -0.3219184134721359 -0.2926688454383823 -0.5695369916112207 0.0
C C -0.14500987827205997 -0.3027771544881667 -0.6475592353274062 0.0
C C 0.00398574514163231 -0.2701811182069283 -0.6914945382590438 0.0
C C -0.11544184113708462 -0.7587715285326703 -0.8664372674136933 0.0
H H -0.21593184113708463 -0.7513415285326703 -0.8476972674136933 0.0
C C -0.20633512263718787 -0.3568259427596718 -0.7101077638317966 0.0
C C -0.06218452995326292 -0.3395214975955665 -0.7120662314009214 0.0
C C -0.25783293557262754 -0.5015328181061849 -0.8673173484737877 0.0
H H -0.31335293557262756 -0.537302818106185 -0.8570873484737878 0.0
C C -0.23045723029259768 -0.44244241308770377 -0.7911523410515325 0.0
H H -0.2587672302925977 -0.4509124130877037 -0.7440123410515327 0.0
C C -0.1526568806887962 -0.44681932197469254 -0.7945108168474186 0.0
C C -0.12145712647498383 -0.4185301020597191 -0.8665175888129624 0.0
H H -0.06147712647498385 -0.3841001020597191 -0.8783775888129625 0.0
C C -0.14042101596391 -0.4575754522795905 -0.8966962300303338 0.0
H H -0.10867101596390995 -0.4509554522795905 -0.9437762300303338 0.0
Cd Cd 0.28258773472122223 -1.05003665996568 0.47851620819703744 0.0
O O 0.4030121741778318 -0.9544445080538442 0.5809032935593446 0.0
O O 0.1987950125856405 -1.0179965656181984 0.5724072157154358 0.0
O O 0.9657638292987184 -1.2567649942435843 0.6415905517077269 0.0
O O 0.45714565113802946 -1.2391892258651682 0.7622529989288989 0.0
N N 0.46492566138264285 -1.1260401213829798 0.5782894455402264 0.0
N N 0.6177595795985584 -1.2460276991472459 0.679631140848175 0.0
C C 0.2977675967118672 -0.9789171118483486 0.5809231839003016 0.0
C C 0.2329038066997973 -0.9258496898365126 0.6363307586710727 0.0
C C 0.14662511264200784 -0.940430118394068 0.7179089592073 0.0
H H 0.07171511264200785 -0.9712901183940682 0.7052689592073 0.0
C C 0.07574912994798179 -0.871721731437891 0.7120898728703882 0.0
H H -0.023160870052018234 -0.872281731437891 0.7337498728703882 0.0
C C 0.18127532620426565 -0.8409096596895822 0.7254741500108906 0.0
C C 0.3391301784784387 -0.8847794775013187 0.7078631027786362 0.0
C C 0.35714498815297835 -0.8684475226065737 0.6555480403150536 0.0
H H 0.4547549881529785 -0.8664175226065737 0.6330180403150536 0.0
C C 0.5094085381182536 -1.273921485480602 0.7879776562596936 0.0
C C 0.8586425830066686 -1.2944496307897688 0.7046889170641533 0.0
C C 0.6070673628997683 -1.156276617352309 0.5667591870840559 0.0
H H 0.6354773628997683 -1.1535466173523088 0.518629187084056 0.0
C C 0.6546110632601434 -1.235865239121093 0.5884506899042156 0.0
H H 0.7254210632601436 -1.264235239121093 0.5699106899042156 0.0
C C 0.5971484356527109 -1.2075303330009595 0.6874042638426067 0.0
C C 0.4966530079879636 -1.1774796230956532 0.6903469031690691 0.0
H H 0.4683430079879636 -1.1776496230956532 0.738506903169069 0.0
C C 0.3956991046899019 -1.1444428515762304 0.6530183156568099 0.0
H H 0.3222091046899018 -1.1159128515762302 0.6693783156568102 0.0
O O 0.21813428611020658 -1.1033940105403917 0.40465799019285936 0.0
O O 0.10105816898343396 -1.1460927478390073 0.46659698563119834 0.0
O O -0.16596638147006382 -0.8404459526071667 0.2684596338209903 0.0
O O 0.3219303065023345 -0.9016683803212917 0.16495755358919542 0.0
N N 0.09248216530042178 -0.8615898517658775 0.20643945692347554 0.0
N N 0.21257976331434636 -1.0031823262802728 0.3807552796177573 0.0
C C 0.14756924269096225 -1.1522527501605717 0.42364183713235487 0.0
C C 0.011402153104636338 -1.1933031761538604 0.4234251675632458 0.0
C C -0.12095311818634912 -1.2258277110465163 0.43660129133813336 0.0
H H -0.15516311818634912 -1.2010977110465164 0.4738612913381333 0.0
C C 0.1155771951317818 -0.7782011120114294 0.10549772623003116 0.0
H H 0.21398719513178185 -0.7870711120114294 0.08575772623003118 0.0
C C 0.14628799923799246 -0.7892529083002198 0.1467592696703286 0.0
C C 0.05640426275001781 -0.8034278333931736 0.17195256564536898 0.0
C C 0.07152315938868752 -1.2417265347327753 0.35490121382349393 0.0
H H 0.1720131593886875 -1.2342965347327752 0.33616121382349395 0.0
C C 0.20646991879189266 -0.8249472772721663 0.17076048113715894 0.0
C C -0.06756987388278361 -0.8372777501429848 0.25930612059064595 0.0
C C 0.2515983742072212 -1.0265363579520386 0.34359872434796007 0.0
H H 0.30711837420722116 -1.0623063579520386 0.3333687243479601 0.0
C C 0.21638995823176677 -0.9470661851421317 0.2690227798177666 0.0
H H 0.24469995823176674 -0.9555361851421317 0.22188277981776666 0.0
C C 0.10938890571075269 -0.9252277722948197 0.29235596601648606 0.0
C C 0.11403367263726298 -0.8932139594760469 0.3501089505105267 0.0
H H 0.054053672637262976 -0.858783959476047 0.36196895051052674 0.0
C C 0.14004779256264727 -0.9442690911161347 0.3808120684594121 0.0
H H 0.10829779256264727 -0.9376490911161347 0.4278920684594121 0.0
