_cell_length_a 8.39304
_cell_length_b 22.23511
_cell_length_c 18.74218
_cell_angle_alpha 90.0
_cell_angle_beta 94.0312
_cell_angle_gamma 90.0
_symmetry_space_group_name_H-M         'P 1'
_symmetry_Int_Tables_number            1
loop_
_symmetry_equiv_pos_as_xyz
   'x, y, z'
                         
loop_
_atom_site_label
_atom_site_type_symbol
_atom_site_fract_x 
_atom_site_fract_y
_atom_site_fract_z
_atom_site_charge
Cd Cd 0.3363041781910946 0.5466778552833891 0.9804651982963601 0.0
O O 0.4326127655612678 0.45028103721723994 1.0573846994592506 0.0
O O 0.18787289303907376 0.48889495507616765 1.075050932407729 0.0
O O 0.9119786244804134 0.7796201623204962 1.13528938003428 0.0
O O 0.40095928104078515 0.7576947809014222 1.2542612967006417 0.0
N N 0.46814175131752683 0.608194252640778 1.0553412209500395 0.0
N N 0.6561891067405698 0.761514767037259 1.2218870354720102 0.0
C C 0.2325967856104409 0.48688254477575665 1.090927556997671 0.0
C C 0.34162263053116154 0.42228008705566233 1.1282256852685566 0.0
C C 0.06373096906670205 0.43314861028559615 1.1564096774373527 0.0
H H -0.011179030933298015 0.4640086102855962 1.1437696774373525 0.0
C C 0.06656537073443809 0.38795081232121514 1.2092355878811467 0.0
H H -0.03234462926556195 0.38851081232121515 1.2308955878811467 0.0
C C 0.20065660338015218 0.3166713484665843 1.2617882155392517 0.0
C C 0.40315116332545736 0.3224402332166551 1.2459317195242996 0.0
C C 0.42696911363963924 0.3959019547920197 1.157701816906547 0.0
H H 0.5245791136396393 0.3938719547920197 1.135171816906547 0.0
C C 0.534996880119902 0.8030370427304602 1.223276580985204 0.0
C C 0.765989743709815 0.8026345846817952 1.2181361987745747 0.0
C C 0.5516426683356689 0.6614459260237812 1.0443072222327168 0.0
H H 0.5800526683356689 0.6587159260237813 0.996177222232717 0.0
C C 0.612485110762827 0.6890078208617915 1.069365151922879 0.0
H H 0.683295110762827 0.7173778208617914 1.0508251519228793 0.0
C C 0.5787812376167742 0.7191979382766349 1.1379241596311764 0.0
C C 0.48016172311585165 0.6825379146820593 1.1815265060278595 0.0
H H 0.4518517231158517 0.6827079146820593 1.2296865060278597 0.0
C C 0.36033148469726944 0.6397561812310446 1.1129935955345687 0.0
H H 0.28684148469726944 0.6112261812310446 1.1293535955345688 0.0
O O 0.2933196156559204 0.6522842959465681 0.9485982245446709 0.0
O O 0.127527752764265 0.6430049070925594 0.997129489305711 0.0
O O -0.1688449823020374 0.35400165802466693 0.7415854712567025 0.0
O O 0.29665221680186177 0.352370774544057 0.6666860703561627 0.0
N N 0.1394094550259689 0.3537113117828451 0.7321873944019186 0.0
N N 0.189313365676712 0.5165543905246827 0.8874318475475691 0.0
C C 0.17734111600859123 0.6771054549123475 0.9365522446856337 0.0
C C 0.06129560208439986 0.6982635106320411 0.918713944847583 0.0
C C -0.13824452978769391 0.7026947806505581 0.9489579637657715 0.0
H H -0.17245452978769393 0.6779647806505582 0.9862179637657713 0.0
C C 0.20274676215382267 0.2602784567776375 0.5929909083406505 0.0
H H 0.3011567621538227 0.26914845677763755 0.5732509083406505 0.0
C C 0.13828341306220587 0.29540956811328356 0.6413960140388487 0.0
C C -0.04153317369257841 0.28332078239643055 0.6882988886737862 0.0
C C 0.11233495212369278 0.7299135512869775 0.8477674282646854 0.0
H H 0.21282495212369285 0.7224835512869775 0.8290274282646855 0.0
C C 0.1880110913083062 0.3325071815102239 0.6533659107767255 0.0
C C -0.023280553627520947 0.3536821714774309 0.7090902338220653 0.0
C C 0.2322371804019884 0.4954492216298801 0.829687478361486 0.0
H H 0.2877571804019884 0.5312192216298802 0.8194574783614861 0.0
C C 0.20207020085490685 0.48364618638647616 0.7515271547828544 0.0
H H 0.23038020085490687 0.4921161863864761 0.7043871547828544 0.0
C C 0.15568309993913831 0.4397925010237981 0.7907942957667412 0.0
C C 0.07644490142172373 0.38991173665631124 0.8420642241429336 0.0
H H 0.01646490142172375 0.35548173665631116 0.8539242241429338 0.0
C C 0.14201862400201276 0.45009001383311603 0.8984642294801726 0.0
H H 0.11026862400201273 0.443470013833116 0.9455442294801726 0.0
Cd Cd -0.2914297472646309 1.0513657425881275 -0.5080658109499717 0.0
O O -0.4769015301860834 0.960541289628958 -0.5531989820165468 0.0
O O -0.19180328204717048 1.002833235990475 -0.589312327555581 0.0
O O -0.8478636365413761 1.2732977596682402 -0.6431673747155974 0.0
O O -0.26367611193449936 1.2571245283563206 -0.7184347349112427 0.0
N N -0.41557823950593303 1.1180089844054741 -0.5751934257613879 0.0
N N -0.6382330638450473 1.246467644461708 -0.6844716120541275 0.0
C C -0.2754333078049121 0.9716565335405195 -0.5883847776567956 0.0
C C -0.32591650469552896 0.9275533016557311 -0.6485572474471183 0.0
C C -0.08811722998033156 0.940921836625575 -0.7033593374408773 0.0
H H -0.013207229980331562 0.9717818366255753 -0.6907193374408773 0.0
C C -0.14129282295994242 0.8722095884416791 -0.739061834463092 0.0
H H -0.04238282295994239 0.8727695884416791 -0.760721834463092 0.0
C C -0.2380882892561217 0.8888481692155686 -0.7420557748643388 0.0
C C -0.3021587614400746 0.8452895423783382 -0.718311753504446 0.0
C C -0.4047424557034061 0.8673644513545684 -0.6487248880536586 0.0
H H -0.5023524557034063 0.8653344513545683 -0.6261948880536586 0.0
C C -0.5297762930697538 1.2620652754122574 -0.7331280800593671 0.0
C C -0.8026637474271275 1.28278433342585 -0.7170433127970254 0.0
C C -0.5557038489425948 1.1689122080140353 -0.5896107376737848 0.0
H H -0.584113848942595 1.1661822080140352 -0.541480737673785 0.0
C C -0.66531657785493 1.197815856669509 -0.629242333566437 0.0
H H -0.7361265778549302 1.226185856669509 -0.610702333566437 0.0
C C -0.6414333326629919 1.2123898055286582 -0.6568950743646108 0.0
C C -0.47756450221831576 1.1616099890118226 -0.6697176211086833 0.0
H H -0.4492545022183157 1.1617799890118226 -0.7178776211086831 0.0
C C -0.41745178098824165 1.116646960866457 -0.6394028614704098 0.0
H H -0.3439617809882416 1.0881169608664572 -0.65576286147041 0.0
O O -0.2634702843163053 1.1391075551618284 -0.4286847413646586 0.0
O O -0.07356896343024776 1.1271038501563264 -0.47232892748079985 0.0
O O 0.11057137934319011 0.8528250422884839 -0.2829615733086903 0.0
O O -0.41496169058961874 0.8581622706287392 -0.16375098999762946 0.0
N N -0.1311494076035689 0.8664729108997863 -0.2583758900463754 0.0
N N -0.22745922060940915 0.985432417773029 -0.41785351033791074 0.0
C C -0.13117531255628742 1.1607447378423104 -0.4184146885681549 0.0
C C -0.012983384586897963 1.197716820792804 -0.4068377524914401 0.0
C C 0.025420017323010306 1.2382562497823975 -0.4448548108267906 0.0
H H 0.05963001732301027 1.2135262497823975 -0.4821148108267906 0.0
C C -0.1697843625186351 0.7693491230186252 -0.09153116047905989 0.0
H H -0.2681943625186351 0.7782191230186253 -0.07179116047905992 0.0
C C -0.19754242207144734 0.786923532857557 -0.1540490079663788 0.0
C C 0.030699223903364943 0.7835063743513775 -0.199689698709936 0.0
C C -0.1445010347571361 1.2270922711248506 -0.35183846450681455 0.0
H H -0.2449910347571361 1.2196622711248508 -0.3330984645068146 0.0
C C -0.15578574698269138 0.8637013556212387 -0.16891862683733969 0.0
C C -0.11133024743219803 0.8221807616140142 -0.22930096879560732 0.0
C C -0.20198116859946258 0.9969843398042426 -0.30727125637902253 0.0
H H -0.25750116859946254 1.0327543398042427 -0.2970412563790226 0.0
C C -0.23265113394786832 0.9579090647552605 -0.2783807181484842 0.0
H H -0.2609611339478683 0.9663790647552605 -0.23124071814848424 0.0
C C -0.11472573484466404 0.9008519442968455 -0.29473691596190366 0.0
C C -0.08459500509123698 0.8964735689155438 -0.3719602650882416 0.0
H H -0.024615005091236992 0.8620435689155439 -0.38382026508824163 0.0
C C -0.10892247776060222 0.9364778118040095 -0.4225743853187657 0.0
H H -0.07717247776060221 0.9298578118040095 -0.4696543853187656 0.0
Cd Cd -0.31349609952544494 -0.5601362729868924 -0.9758251499565979 0.0
O O -0.4685445018833701 -0.4763608898559985 -1.0339493786181626 0.0
O O -0.2239064979849642 -0.5032089413029208 -1.0671335685295071 0.0
O O -0.8804817935597908 -0.780343696408949 -1.1782743335437358 0.0
O O -0.35527295702521616 -0.7539961830303804 -1.2785868615529616 0.0
N N -0.3959083306843625 -0.5920782331970218 -1.05247617168895 0.0
N N -0.5597286101962556 -0.7901679432468305 -1.198648179203768 0.0
C C -0.3035264643628917 -0.4701902282867421 -1.0929561728814046 0.0
C C -0.28429694040034054 -0.4332712928530122 -1.1320699297777892 0.0
C C -0.11465106859120262 -0.4433848381140482 -1.1960639012337284 0.0
H H -0.039741068591202584 -0.4742448381140483 -1.1834239012337284 0.0
C C -0.12916561464444723 -0.37904877200458437 -1.2404632949410757 0.0
H H -0.030255614644447187 -0.37960877200458437 -1.262123294941076 0.0
C C -0.20608714019904756 -0.32723272911124796 -1.2623292656905116 0.0
C C -0.35455165743235195 -0.3264212208400715 -1.2198431082556105 0.0
C C -0.4535374727932708 -0.37553638687850865 -1.1681672070607745 0.0
H H -0.5511474727932709 -0.3735063868785086 -1.1456372070607745 0.0
C C -0.5258410531804264 -0.7554575703568543 -1.2850205265214494 0.0
C C -0.8130914479633976 -0.7841776246624435 -1.2073383242995455 0.0
C C -0.5944644249979164 -0.6723015769243519 -1.0472508193427497 0.0
H H -0.6228744249979165 -0.669571576924352 -0.9991208193427498 0.0
C C -0.6545133966909732 -0.708878263583349 -1.0742077840505013 0.0
H H -0.7253233966909731 -0.7372482635833489 -1.0556677840505013 0.0
C C -0.5561169855394968 -0.7153214282103885 -1.1128418524033923 0.0
C C -0.48197378627765597 -0.6734025404209121 -1.1796257028686514 0.0
H H -0.453663786277656 -0.6735725404209121 -1.2277857028686516 0.0
C C -0.38965630913554605 -0.6166504794721559 -1.1426147903406862 0.0
H H -0.31616630913554605 -0.5881204794721558 -1.1589747903406862 0.0
O O -0.27083742975409597 -0.6555328162408455 -0.9223883945620979 0.0
O O -0.06964931367973291 -0.6447060854105106 -0.9797240628571067 0.0
O O 0.20075198053068308 -0.3628293399758827 -0.7722968441991054 0.0
O O -0.3070417752620887 -0.3524590765403653 -0.6662818098759803 0.0
N N -0.16906005165234217 -0.3750333852236719 -0.7471519583493486 0.0
N N -0.2504196160343949 -0.49018187809867625 -0.9129388626198364 0.0
C C -0.17220222101803545 -0.6482751740850966 -0.9491856903519038 0.0
C C -0.04155356730555172 -0.7363227152156386 -0.9194548902229491 0.0
C C 0.04759284044215894 -0.7166277364466311 -0.9459649677831661 0.0
H H 0.08180284044215895 -0.6918977364466312 -0.9832249677831659 0.0
C C -0.2561217036782767 -0.25238119184094626 -0.5880808536766079 0.0
H H -0.3545317036782767 -0.26125119184094625 -0.5683408536766079 0.0
C C -0.17861208861279973 -0.3075185467754775 -0.633128058020385 0.0
C C -0.03980887977495751 -0.2912856356917202 -0.6718745556397583 0.0
C C -0.018483367923306744 -0.7437661650815846 -0.8563221411938527 0.0
H H -0.11897336792330676 -0.7363361650815845 -0.8375821411938527 0.0
C C -0.21103744165611296 -0.35323482783393695 -0.6593236473092926 0.0
C C -0.036863456450683514 -0.3324565451147862 -0.7538680438204507 0.0
C C -0.2723478597393267 -0.5295970586249877 -0.8313803293397659 0.0
H H -0.3278678597393267 -0.5653670586249878 -0.821150329339766 0.0
C C -0.2028544429081545 -0.45615994714616964 -0.7601536679464742 0.0
H H -0.23116444290815452 -0.4646299471461696 -0.7130136679464742 0.0
C C -0.13035321278185188 -0.4531238142359335 -0.7901220397475925 0.0
C C -0.11782875498818175 -0.4172827385389351 -0.8748607779035347 0.0
H H -0.057848754988181775 -0.3828527385389351 -0.8867207779035348 0.0
C C -0.11929812107490938 -0.4486938156023939 -0.9062022086542821 0.0
H H -0.08754812107490936 -0.44207381560239384 -0.9532822086542821 0.0
Cd Cd 0.29413350184067194 -1.0515173410042675 0.46399500005634325 0.0
O O 0.4305278328358138 -0.9444850821349997 0.5254099182428175 0.0
O O 0.175675744259977 -1.0098693016347717 0.5632989690239361 0.0
O O 0.9096420537664416 -1.2664059117605557 0.7096421672912194 0.0
O O 0.4387069358098388 -1.2851748293404226 0.8005086324618517 0.0
N N 0.4268723782453683 -1.1389420203918879 0.5637164999901535 0.0
N N 0.6014428007377892 -1.2541906684369715 0.6961725188698915 0.0
C C 0.36168587049043177 -0.9719034989587594 0.5996618789787823 0.0
C C 0.3113033001348462 -0.9093057176432265 0.6363455211896278 0.0
C C 0.11975797811125448 -0.9110148546923909 0.6726184689464904 0.0
H H 0.04484797811125448 -0.941874854692391 0.6599784689464904 0.0
C C 0.1659238350677678 -0.8931322902444949 0.7423374673951956 0.0
H H 0.06701383506776779 -0.8936922902444949 0.7639974673951956 0.0
C C 0.17239361650209784 -0.8135795751641992 0.7419429766602034 0.0
C C 0.3760124559964682 -0.8376935022750078 0.7165050278167863 0.0
C C 0.3877639899070989 -0.8754684826808339 0.6690423570657347 0.0
H H 0.485373989907099 -0.8734384826808339 0.6465123570657346 0.0
C C 0.5772776512511496 -1.3081748711653114 0.740925626069747 0.0
C C 0.8271889067859246 -1.2830461376153814 0.6860476450599845 0.0
C C 0.5952227295854503 -1.1527173792495187 0.5443255962059667 0.0
H H 0.6236327295854505 -1.1499873792495185 0.49619559620596676 0.0
C C 0.6636292296094047 -1.200301420719921 0.5662313811247975 0.0
H H 0.7344392296094049 -1.228671420719921 0.5476913811247975 0.0
C C 0.5955861180543864 -1.2304495473896266 0.6556609453926626 0.0
C C 0.4044215579651298 -1.1466350708182569 0.6908113282861822 0.0
H H 0.37611155796512974 -1.1468050708182569 0.7389713282861822 0.0
C C 0.41737496187167655 -1.1334593464327145 0.6398820715879778 0.0
H H 0.3438849618716765 -1.1049293464327146 0.6562420715879781 0.0
O O 0.3012870051314713 -1.1561095281436666 0.4247866334514252 0.0
O O 0.06197487748881213 -1.1291307569240367 0.4882248308419772 0.0
O O -0.12117861921816113 -0.8258943669847287 0.2954315408905675 0.0
O O 0.3367543583492285 -0.8747104877956942 0.19202628726995793 0.0
N N 0.13926725666424236 -0.8625143743857168 0.2453093308427188 0.0
N N 0.2666845988456814 -0.9791128400625042 0.3913541251165505 0.0
C C 0.09742627132215215 -1.166926363144197 0.46430850965912873 0.0
C C 0.07429939814709058 -1.2259302904228917 0.4261626385207476 0.0
C C -0.08522013967642159 -1.2069620968033035 0.4614758340481769 0.0
H H -0.11943013967642158 -1.1822320968033035 0.4987358340481769 0.0
C C 0.23890715479581717 -0.7804519194818759 0.11299447254781009 0.0
H H 0.33731715479581714 -0.7893219194818759 0.09325447254781011 0.0
C C 0.1342939334549557 -0.7933441447691035 0.10526839444571776 0.0
C C 0.015078303155956525 -0.7908127817570314 0.1373695846409324 0.0
C C 0.13316369377598417 -1.2365172293505766 0.3531586406630036 0.0
H H 0.23365369377598416 -1.2290872293505768 0.3344186406630037 0.0
C C 0.22785582147694003 -0.8511967477273628 0.208301140456477 0.0
C C -0.06646278033390082 -0.8321231407783835 0.24440514109754433 0.0
C C 0.2789104128800396 -1.0143294094342004 0.34393254647793287 0.0
H H 0.33443041288003955 -1.0500994094342004 0.33370254647793296 0.0
C C 0.24625706963915472 -0.9661335137293939 0.2703380920475181 0.0
H H 0.2745670696391548 -0.9746035137293939 0.22319809204751812 0.0
C C 0.1798319730085353 -0.9085263826989382 0.29092832800993806 0.0
C C 0.0943283476574999 -0.8975759596113801 0.3465477275098347 0.0
H H 0.0343483476574999 -0.8631459596113803 0.35840772750983474 0.0
C C 0.12285273155865253 -0.9334118083292372 0.398970026753534 0.0
H H 0.09110273155865252 -0.9267918083292371 0.44605002675353395 0.0
_cell_length_a 8.39304
_cell_length_b 22.23511
_cell_length_c 18.74218
_cell_angle_alpha 90.0
_cell_angle_beta 94.0312
_cell_angle_gamma 90.0
_symmetry_space_group_name_H-M         'P 1'
_symmetry_Int_Tables_number            1
loop_
_symmetry_equiv_pos_as_xyz
   'x, y, z'
                         
loop_
_atom_site_label
_atom_site_type_symbol
_atom_site_fract_x 
_atom_site_fract_y
_atom_site_fract_z
_atom_site_charge
Cd Cd 0.3301602145962327 0.5488891087931851 0.9896261163011457 0.0
O O 0.38305227326240576 0.4537432920836628 1.0411475485636155 0.0
O O 0.17129754508479272 0.4924291467681571 1.062013480243901 0.0
O O 0.9238362033284218 0.7559352933671803 1.1584335978530926 0.0
O O 0.4130479096757099 0.7764185178219636 1.3028912100039065 0.0
N N 0.45832620030651267 0.6353917695183856 1.0828464037312397 0.0
N N 0.6045129966702915 0.766836452230047 1.21634848784462 0.0
C C 0.334976634237741 0.48266868697789694 1.1047117471267993 0.0
C C 0.2590975543543454 0.4258785097784474 1.1450783778450127 0.0
C C 0.17002799672201535 0.41397992524066607 1.196819841414706 0.0
H H 0.09511799672201532 0.4448399252406661 1.184179841414706 0.0
C C 0.12145203172769165 0.3898761660072542 1.2592348002688467 0.0
H H 0.02254203172769164 0.3904361660072542 1.2808948002688467 0.0
C C 0.11039558799866572 0.3404416600848456 1.2433909763879814 0.0
C C 0.3073017542402017 0.34231137397085476 1.1899268282304858 0.0
C C 0.41280143020991034 0.37224434674960816 1.1593822829605362 0.0
H H 0.5104114302099104 0.3702143467496081 1.1368522829605363 0.0
C C 0.5567064568779153 0.8170100906232547 1.2432696400625747 0.0
C C 0.7520734769679636 0.7822744821787855 1.1594281241651283 0.0
C C 0.563810778295684 0.6641221618317066 1.0563234662699013 0.0
H H 0.5922207782956841 0.6613921618317067 1.0081934662699013 0.0
C C 0.6135609928177085 0.6839335359331613 1.0974373368519184 0.0
H H 0.6843709928177085 0.7123035359331612 1.0788973368519184 0.0
C C 0.519993493571565 0.7254791562341549 1.1475191812764414 0.0
C C 0.49289825523768793 0.6866737274494543 1.2054384665909978 0.0
H H 0.464588255237688 0.6868437274494543 1.253598466590998 0.0
C C 0.3704130925397096 0.630174727622409 1.1246525701541223 0.0
H H 0.2969230925397096 0.6016447276224091 1.1410125701541225 0.0
O O 0.26995232122193635 0.6483201253067965 0.9124471543433437 0.0
O O 0.09385034188677122 0.6137573066522842 0.9756576001355192 0.0
O O -0.24824691457668766 0.3640594020827997 0.7651502873849907 0.0
O O 0.35386703488537685 0.4013144610348089 0.6854182737298203 0.0
N N 0.15301281666011105 0.3695719534256617 0.7078751155568264 0.0
N N 0.19810021189631175 0.5042891142603906 0.9199629068225063 0.0
C C 0.07877262270090114 0.6419313974294504 0.9322366993813552 0.0
C C 0.04677099029847597 0.6974224498689267 0.9029130184864446 0.0
C C -0.114295373961706 0.7372283241346893 0.9241524724828841 0.0
H H -0.14850537396170602 0.7124983241346894 0.9614124724828841 0.0
C C 0.19142848728732745 0.2794460364022138 0.6036330855506703 0.0
H H 0.2898384872873275 0.28831603640221387 0.5838930855506703 0.0
C C 0.14483135426832358 0.2970252207136534 0.627208686405687 0.0
C C 0.023882831926624607 0.2876623400174933 0.6969134772970219 0.0
C C 0.018341901716697886 0.749740481823284 0.8594467447680556 0.0
H H 0.1188319017166979 0.742310481823284 0.8407067447680556 0.0
C C 0.31134516189031325 0.3544537077389359 0.6931675498578816 0.0
C C -0.0019451186240601111 0.3391605687718302 0.7117587388038381 0.0
C C 0.27999403738434875 0.5137952745835137 0.833313136668291 0.0
H H 0.33551403738434876 0.5495652745835138 0.823083136668291 0.0
C C 0.15036427361479254 0.4608034504073297 0.754586001277502 0.0
H H 0.17867427361479257 0.46927345040732965 0.707446001277502 0.0
C C 0.13227240857417352 0.3950582999105617 0.7887361758805038 0.0
C C 0.06607961016309939 0.38018375163504214 0.8621955690947786 0.0
H H 0.006099610163099422 0.3457537516350422 0.8740555690947788 0.0
C C 0.11592748366984736 0.4661221411510719 0.9146830775806016 0.0
H H 0.08417748366984736 0.45950214115107185 0.9617630775806016 0.0
Cd Cd -0.3378380513222592 1.0792120053062657 -0.4817651914196963 0.0
O O -0.4547216076163323 0.9577267323510732 -0.5559509635284895 0.0
O O -0.17034279476209038 1.0057188617914636 -0.5739327171953745 0.0
O O -0.8685663646727192 1.2742496308679665 -0.6369543945923668 0.0
O O -0.5780380485183989 1.269265139235475 -0.7786316730258696 0.0
N N -0.4831898761655406 1.1204765845868963 -0.5551857119259561 0.0
N N -0.7127128454577903 1.2493698752264575 -0.717562917665743 0.0
C C -0.31793707396295645 0.9679202538353819 -0.5786600495753031 0.0
C C -0.24833318696617382 0.914522432105762 -0.6497000106523421 0.0
C C -0.13355052811057214 0.9250153102968012 -0.6752943052667798 0.0
H H -0.05864052811057213 0.9558753102968014 -0.6626543052667798 0.0
C C -0.017856402152550174 0.8640575954540735 -0.7241666291126686 0.0
H H 0.08105359784744984 0.8646175954540735 -0.7458266291126686 0.0
C C -0.159105190389687 0.8225277859082031 -0.7432521766486543 0.0
C C -0.31019046855346805 0.8583157795730754 -0.7156508942855856 0.0
C C -0.4063649486445262 0.8501338304339467 -0.6501936634676981 0.0
H H -0.5039749486445263 0.8481038304339468 -0.6276636634676981 0.0
C C -0.5696314626245692 1.272291880050105 -0.7602684004158674 0.0
C C -0.7885432171624986 1.2763968637058538 -0.688168871178833 0.0
C C -0.575250978767086 1.1270309871558852 -0.5595128124361174 0.0
H H -0.6036609787670861 1.1243009871558851 -0.5113828124361176 0.0
C C -0.629483534462592 1.2348075698614172 -0.569061829534005 0.0
H H -0.7002935344625921 1.2631775698614172 -0.5505218295340049 0.0
C C -0.5775785680950829 1.2045600993238277 -0.6325122823409837 0.0
C C -0.43957553442289715 1.1687650716012021 -0.6792268737494253 0.0
H H -0.4112655344228971 1.1689350716012024 -0.7273868737494252 0.0
C C -0.40571679913299097 1.1219820768658753 -0.657841904374992 0.0
H H -0.3322267991329909 1.0934520768658753 -0.6742019043749923 0.0
O O -0.26875701084546877 1.1463283111113565 -0.41409270062165376 0.0
O O -0.0723376592317405 1.1307093050388137 -0.5039057634596323 0.0
O O 0.16508209670992918 0.8476160798321115 -0.23434647579690618 0.0
O O -0.35828185199998797 0.8706516420827558 -0.18609737199064166 0.0
N N -0.1090872236551259 0.8795810500325965 -0.23042360451454227 0.0
N N -0.21243749864598177 1.0064913904891228 -0.421309849900839 0.0
C C -0.13206237623658137 1.166919574270238 -0.43908385469234557 0.0
C C 0.021538061043256715 1.2325197315512615 -0.3879186213551527 0.0
C C 0.15666402256289524 1.224143028956127 -0.4081246093657594 0.0
H H 0.1908740225628952 1.1994130289561271 -0.44538460936575935 0.0
C C -0.23083385716793908 0.7546307216649435 -0.10093970823257359 0.0
H H -0.3292438571679391 0.7635007216649435 -0.08119970823257361 0.0
C C -0.12975909021512216 0.8155934600935673 -0.13446288831636033 0.0
C C 0.09465638111063437 0.76719367241204 -0.16726173985931536 0.0
C C -0.15024595377228162 1.220269692172365 -0.3705170182188495 0.0
H H -0.2507359537722816 1.2128396921723652 -0.35177701821884955 0.0
C C -0.2740345842288134 0.8336753491340269 -0.18079991863076048 0.0
C C 0.025213587584532068 0.8161850474674975 -0.22507682973361937 0.0
C C -0.3244116815693386 1.0137765179803406 -0.3460201199049072 0.0
H H -0.3799316815693386 1.0495465179803407 -0.3357901199049073 0.0
C C -0.1497824154004657 0.9483647082808139 -0.29334160697887635 0.0
H H -0.17809241540046572 0.9568347082808139 -0.24620160697887636 0.0
C C -0.1771959152394434 0.9093814118359479 -0.2791427411242276 0.0
C C -0.09563913103706331 0.9063886855665257 -0.35076296977410093 0.0
H H -0.03565913103706333 0.8719586855665258 -0.36262296977410097 0.0
C C -0.12099269954681617 0.9537914316221696 -0.3918973930283253 0.0
H H -0.08924269954681616 0.9471714316221697 -0.4389773930283253 0.0
Cd Cd -0.2928809834096488 -0.5803529524447933 -0.9957627317876233 0.0
O O -0.38867428862952064 -0.4629219357603552 -1.0582236074809706 0.0
O O -0.23122846138311168 -0.5226300255499461 -1.0729052172557378 0.0
O O -0.8636911936330688 -0.7617405349388902 -1.127967114501899 0.0
O O -0.4897145380056096 -0.7806065812838374 -1.3359900268716165 0.0
N N -0.4313671771638669 -0.6305634911725526 -1.0677717152302897 0.0
N N -0.5841958584920575 -0.7592490658053441 -1.1665384209827279 0.0
C C -0.320062000486326 -0.4599912837221791 -1.0785477750127639 0.0
C C -0.2718274896220729 -0.40276471375913286 -1.1463021665190007 0.0
C C -0.11372169574556812 -0.4096494347901164 -1.1611948583826064 0.0
H H -0.03881169574556807 -0.4405094347901164 -1.1485548583826062 0.0
C C -0.05459653595701106 -0.36864679304176823 -1.2438251395488178 0.0
H H 0.044313464042988984 -0.36920679304176823 -1.265485139548818 0.0
C C -0.17982995024914808 -0.3434369730181103 -1.2239490199175607 0.0
C C -0.3785418785741249 -0.31317205381666746 -1.205674589525046 0.0
C C -0.45631358125224725 -0.3793965675947015 -1.1739819404404512 0.0
H H -0.5539235812522474 -0.37736656759470144 -1.1514519404404513 0.0
C C -0.5813048116724776 -0.7921964690108995 -1.2321136123599186 0.0
C C -0.7720332768141893 -0.7783333547376964 -1.2054920056996767 0.0
C C -0.5311328327882947 -0.6602351881522388 -1.0507569417781906 0.0
H H -0.5595428327882946 -0.6575051881522389 -1.0026269417781908 0.0
C C -0.6712081143977625 -0.7181248511466187 -1.0722530413859779 0.0
H H -0.7420181143977626 -0.7464948511466186 -1.053713041385978 0.0
C C -0.6532978312849542 -0.7321971254557109 -1.1874597771878128 0.0
C C -0.48718341069611587 -0.6741309253406202 -1.1838026986916113 0.0
H H -0.4588734106961159 -0.6743009253406202 -1.2319626986916112 0.0
C C -0.4648069437205133 -0.6198398820621802 -1.1503805756649752 0.0
H H -0.3913169437205133 -0.5913098820621802 -1.1667405756649754 0.0
O O -0.24236451774057263 -0.6365398628682616 -0.8986558313121483 0.0
O O -0.12199966591977811 -0.6139428463134421 -0.9865397017621933 0.0
O O 0.10126646488644978 -0.3576425067904921 -0.7488781503835082 0.0
O O -0.3465332044821156 -0.3471693786074937 -0.6675865859385749 0.0
N N -0.15233708004207203 -0.39655649911324786 -0.7246459858688026 0.0
N N -0.23981436762218217 -0.48643846800697155 -0.8997775696403241 0.0
C C -0.11470769609473336 -0.65424934150772 -0.9390289101574794 0.0
C C -0.06290295224238483 -0.6922307047359576 -0.916345347093474 0.0
C C 0.08509587164123987 -0.7185329272922503 -0.9585794960745915 0.0
H H 0.11930587164123992 -0.6938029272922503 -0.9958394960745913 0.0
C C -0.19534119233463218 -0.2720349644578774 -0.6152945090811932 0.0
H H -0.2937511923346322 -0.2809049644578774 -0.5955545090811932 0.0
C C -0.15684241550438327 -0.28220891807515713 -0.6565173724169 0.0
C C -0.012733200888383618 -0.2808829559207916 -0.6788576786527099 0.0
C C -0.07679997243363866 -0.7124782324846565 -0.8797929033550768 0.0
H H -0.1772899724336387 -0.7050482324846565 -0.8610529033550768 0.0
C C -0.1676706372495258 -0.33440375788355897 -0.6658480500136372 0.0
C C -0.07541466966889226 -0.30504444443021894 -0.7089954376243346 0.0
C C -0.27502610383079923 -0.531025400947886 -0.8231130937472976 0.0
H H -0.33054610383079924 -0.566795400947886 -0.8128830937472976 0.0
C C -0.2040895718823478 -0.44806785667528465 -0.7690866776821667 0.0
H H -0.2323995718823478 -0.4565378566752846 -0.7219466776821668 0.0
C C -0.13613711132513964 -0.4052308499904011 -0.768668766458985 0.0
C C -0.0804917041261092 -0.4154165724002075 -0.859624788918995 0.0
H H -0.020511704126109233 -0.38098657240020756 -0.8714847889189951 0.0
C C -0.16203747035640717 -0.4688059881913147 -0.9037099824455671 0.0
H H -0.13028747035640717 -0.4621859881913147 -0.9507899824455671 0.0
Cd Cd 0.30110246232108057 -1.058347803835776 0.49894031494529567 0.0
O O 0.46966599539047604 -0.9416495529266812 0.5619441175479517 0.0
O O 0.2595118802876109 -1.0109421100500244 0.5826687521425444 0.0
O O 0.9184935203711097 -1.2748141035025444 0.6688134362195823 0.0
O O 0.3673666264175851 -1.2783419720314946 0.7525729679234481 0.0
N N 0.5011083630975988 -1.1065030963168194 0.5565290701407901 0.0
N N 0.7169340692859149 -1.234504904033705 0.6935295418181342 0.0
C C 0.3328687052059079 -0.9781757408282901 0.5883319685248565 0.0
C C 0.2888670225637776 -0.923961047887792 0.6430526974947329 0.0
C C 0.12816464243682293 -0.9242506723949906 0.6815745768075987 0.0
H H 0.05325464243682296 -0.9551106723949907 0.6689345768075987 0.0
C C 0.05711183254709574 -0.8790931721258088 0.7233513127449349 0.0
H H -0.04179816745290429 -0.8796531721258088 0.7450113127449349 0.0
C C 0.21128673486774702 -0.8779538016661139 0.7706650273180863 0.0
C C 0.3160450326995293 -0.82217140452473 0.723760807618094 0.0
C C 0.35675612280814495 -0.9036995212696658 0.6639054431575714 0.0
H H 0.4543661228081451 -0.9016695212696658 0.6413754431575713 0.0
C C 0.6447008721537234 -1.2872642428240957 0.759318260735024 0.0
C C 0.7960206218557235 -1.280847253461812 0.7026090649880767 0.0
C C 0.6215563981710898 -1.1569757513285273 0.5321045361320165 0.0
H H 0.6499663981710899 -1.1542457513285271 0.4839745361320166 0.0
C C 0.6310403808543187 -1.1977154971770205 0.5861658313064134 0.0
H H 0.7018503808543188 -1.2260854971770208 0.5676258313064133 0.0
C C 0.534511846751303 -1.1936807560073208 0.6627184709978409 0.0
C C 0.44948326398246047 -1.170356453689663 0.6408819038979245 0.0
H H 0.42117326398246047 -1.170526453689663 0.6890419038979244 0.0
C C 0.4337664327171169 -1.1431291732396032 0.6404020692991196 0.0
H H 0.3602764327171169 -1.1145991732396032 0.6567620692991197 0.0
O O 0.27072056831682273 -1.1512464097133757 0.41218697841633356 0.0
O O 0.05573268153468544 -1.1154223436647241 0.5073448469387414 0.0
O O -0.13538189691653965 -0.8297654389017325 0.28514720130577426 0.0
O O 0.2621269255880107 -0.8493338033785762 0.19664637766247792 0.0
N N 0.10780558493768296 -0.8906253254507741 0.24051831959252712 0.0
N N 0.188611937755823 -1.0106370694249083 0.36381904062221687 0.0
C C 0.1315626458337826 -1.144606674820112 0.42390154965475785 0.0
C C 0.014650764851435068 -1.196122868373423 0.40301920032682126 0.0
C C -0.08660097473103466 -1.2499592707585772 0.42086792472069534 0.0
H H -0.12081097473103461 -1.2252292707585772 0.45812792472069536 0.0
C C 0.13044818109287223 -0.7421668235940994 0.07915631864853176 0.0
H H 0.22885818109287223 -0.7510368235940994 0.05941631864853178 0.0
C C 0.19995704385371688 -0.783689817537703 0.16886794464242005 0.0
C C -0.026218790456935512 -0.7511405782719963 0.1560676007356912 0.0
C C 0.11536154981839393 -1.245565894785116 0.35414610920089995 0.0
H H 0.2158515498183939 -1.238135894785116 0.33540610920089997 0.0
C C 0.2957188139671549 -0.8569769516450995 0.1748556589243647 0.0
C C -0.13392216907089569 -0.8300770498567748 0.22656666635431913 0.0
C C 0.28175257489532857 -0.9944582894648493 0.3399660567484882 0.0
H H 0.3372725748953286 -1.0302282894648493 0.3297360567484882 0.0
C C 0.24462670277200238 -0.9507758300637076 0.2805999239320894 0.0
H H 0.2729367027720024 -0.9592458300637076 0.2334599239320894 0.0
C C 0.10492519789939427 -0.9276017369526376 0.26830305272717364 0.0
C C 0.11837863141174422 -0.89175506483986 0.3653691354487411 0.0
H H 0.05839863141174423 -0.85732506483986 0.37722913544874115 0.0
C C 0.1664799141488987 -0.9596872763081239 0.41263449365690585 0.0
H H 0.13472991414889868 -0.9530672763081239 0.4597144936569058 0.0
