_cell_length_a 11.045
_cell_length_b 11.045
_cell_length_c 8.163
_cell_angle_alpha 90.0
_cell_angle_beta 90.0
_cell_angle_gamma 90.0
_symmetry_space_group_name_H-M         'P 1'
_symmetry_Int_Tables_number            1
loop_
_symmetry_equiv_pos_as_xyz
   'x, y, z'
                         
loop_
_atom_site_label
_atom_site_type_symbol
_atom_site_fract_x 
_atom_site_fract_y
_atom_site_fract_z
_atom_site_charge
C1 C1 0.257311 0.457585 0.368999 0.0
C2 C2 0.131594 0.456767 0.364768 0.0
C1 C1 0.742689 0.542415 0.368999 0.0
C2 C2 0.868406 0.543233 0.364768 0.0
C1 C1 0.542415 0.257311 0.368999 0.0
C2 C2 0.543233 0.131594 0.364768 0.0
C1 C1 0.457585 0.742689 0.368999 0.0
C2 C2 0.456767 0.868406 0.364768 0.0
C1 C1 0.742689 0.457585 0.631001 0.0
C2 C2 0.868406 0.456767 0.635232 0.0
C1 C1 0.257311 0.542415 0.631001 0.0
C2 C2 0.131594 0.543233 0.635232 0.0
C1 C1 0.457585 0.257311 0.631001 0.0
C2 C2 0.456767 0.131594 0.635232 0.0
C1 C1 0.542415 0.742689 0.631001 0.0
C2 C2 0.543233 0.868406 0.635232 0.0
C3 C3 0.066663 0.5 0.5 0.0
C3 C3 0.933337 0.5 0.5 0.0
C3 C3 0.5 0.066663 0.5 0.0
C3 C3 0.5 0.933337 0.5 0.0
H1 H1 0.31148 0.425621 0.265696 0.0
H2 H2 0.084922 0.420684 0.257838 0.0
H3 H3 0.68852 0.574379 0.265696 0.0
H4 H4 0.915078 0.579316 0.257838 0.0
H5 H5 0.574379 0.31148 0.265696 0.0
H6 H6 0.579316 0.084922 0.257838 0.0
H7 H7 0.425621 0.68852 0.265696 0.0
H8 H8 0.420684 0.915078 0.257838 0.0
H9 H9 0.68852 0.425621 0.734304 0.0
H10 H10 0.915078 0.420684 0.742162 0.0
H11 H11 0.31148 0.574379 0.734304 0.0
H12 H12 0.084922 0.579316 0.742162 0.0
H13 H13 0.425621 0.31148 0.734304 0.0
H14 H14 0.420684 0.084922 0.742162 0.0
H15 H15 0.574379 0.68852 0.734304 0.0
H16 H16 0.579316 0.915078 0.742162 0.0
Cu1 Cu1 0.5 0.5 0.5 0.0
Si1 Si1 0.5 0.5 0.0 0.0
F1 F1 0.5 0.5 0.785058 0.0
F2 F2 0.5 0.5 0.214942 0.0
F3 F3 0.390352 0.390352 0.0 0.0
F4 F4 0.609648 0.609648 0.0 0.0
F3 F3 0.609648 0.390352 0.0 0.0
F4 F4 0.390352 0.609648 0.0 0.0
N1 N1 0.318061 0.5 0.5 0.0
N1 N1 0.681939 0.5 0.5 0.0
N1 N1 0.5 0.318061 0.5 0.0
N1 N1 0.5 0.681939 0.5 0.0
