_cell_length_a 19.5206
_cell_length_b 17.9856
_cell_length_c 12.6054
_cell_angle_alpha 90.0
_cell_angle_beta 99.0355
_cell_angle_gamma 90.0
_symmetry_space_group_name_H-M         'P 1'
_symmetry_Int_Tables_number            1
loop_
_symmetry_equiv_pos_as_xyz
   'x, y, z'
                         
loop_
_atom_site_label
_atom_site_type_symbol
_atom_site_fract_x 
_atom_site_fract_y
_atom_site_fract_z
_atom_site_charge
C C 0.23912 0.89803 0.60923 0.0
H H 0.238 0.9486 0.5943 0.0
C C 0.24382 0.84993 0.52684 0.0
H H 0.2451 0.8686 0.4583 0.0
C C 0.24672 0.77623 0.54294 0.0
C C 0.24593 0.75423 0.64634 0.0
H H 0.2485 0.7038 0.6631 0.0
C C 0.24142 0.80522 0.72573 0.0
H H 0.2422 0.7881 0.7955 0.0
C C 0.35342 0.93753 0.98373 0.0
H H 0.327 0.9049 1.0179 0.0
C C 0.42092 0.94663 1.02474 0.0
H H 0.4398 0.9197 1.0853 0.0
C C 0.46242 0.99462 0.97913 0.0
C C 0.43173 1.03133 0.88794 0.0
H H 0.4575 1.0635 0.852 0.0
C C 0.36302 1.02003 0.85104 0.0
H H 0.3428 1.0464 0.7906 0.0
C C 0.16432 0.90323 0.98584 0.0
C C 0.12452 0.85773 1.05544 0.0
C C 0.08372 0.79802 1.01313 0.0
H H 0.0841 0.7841 0.9421 0.0
C C 0.04272 0.75902 1.07304 0.0
H H 0.0171 0.7187 1.0422 0.0
C C 0.03892 0.77822 1.17723 0.0
C C 0.07712 0.83823 1.22043 0.0
H H 0.0743 0.8533 1.2902 0.0
C C 0.12043 0.87692 1.16044 0.0
C C 0.16722 0.93562 1.21663 0.0
C C 0.0 0.73083 1.25 0.0
C C -0.05462 0.68013 1.18704 0.0
F F -0.0947313 0.7189414 1.1092219 0.0
F F -0.0277214 0.6247114 1.13592 0.0
F F -0.0961214 0.6505314 1.2478819 0.0
N N 0.23602 0.8773519 0.70783 0.0
N N 0.3227519 0.97322 0.89633 0.0
O O 0.1714117 0.9714517 1.00113 0.0
O O 0.1899417 0.8686717 0.92242 0.0
O O 0.2287518 0.9328117 1.21563 0.0
O O 0.1427618 0.9849219 1.26143 0.0
Zn Zn 0.222882 0.949852 0.828773 0.0
C C -0.23912 0.89803 -0.10923000000000005 0.0
H H -0.238 0.9486 -0.09430000000000005 0.0
C C -0.24382 0.84993 -0.026839999999999975 0.0
H H -0.2451 0.8686 0.041700000000000015 0.0
C C -0.24672 0.77623 -0.04293999999999998 0.0
C C -0.24593 0.75423 -0.14634000000000003 0.0
H H -0.2485 0.7038 -0.16310000000000002 0.0
C C -0.24142 0.80522 -0.22573 0.0
H H -0.2422 0.7881 -0.2955 0.0
C C -0.35342 0.93753 -0.48373 0.0
H H -0.327 0.9049 -0.5179 0.0
C C -0.42092 0.94663 -0.52474 0.0
H H -0.4398 0.9197 -0.5852999999999999 0.0
C C -0.46242 0.99462 -0.47912999999999994 0.0
C C -0.43173 1.03133 -0.38793999999999995 0.0
H H -0.4575 1.0635 -0.352 0.0
C C -0.36302 1.02003 -0.35104 0.0
H H -0.3428 1.0464 -0.29059999999999997 0.0
C C -0.16432 0.90323 -0.48584000000000005 0.0
C C -0.12452 0.85773 -0.5554399999999999 0.0
C C -0.08372 0.79802 -0.5131300000000001 0.0
H H -0.0841 0.7841 -0.44210000000000005 0.0
C C -0.04272 0.75902 -0.57304 0.0
H H -0.0171 0.7187 -0.5422 0.0
C C -0.03892 0.77822 -0.67723 0.0
C C -0.07712 0.83823 -0.7204299999999999 0.0
H H -0.0743 0.8533 -0.7902 0.0
C C -0.12043 0.87692 -0.6604399999999999 0.0
C C -0.16722 0.93562 -0.7166300000000001 0.0
C C -0.0 0.73083 -0.75 0.0
C C 0.05462 0.68013 -0.6870400000000001 0.0
F F 0.0947313 0.7189414 -0.6092219000000001 0.0
F F 0.0277214 0.6247114 -0.63592 0.0
F F 0.0961214 0.6505314 -0.7478819000000001 0.0
N N -0.23602 0.8773519 -0.20782999999999996 0.0
N N -0.3227519 0.97322 -0.39632999999999996 0.0
O O -0.1714117 0.9714517 -0.5011300000000001 0.0
O O -0.1899417 0.8686717 -0.42242 0.0
O O -0.2287518 0.9328117 -0.71563 0.0
O O -0.1427618 0.9849219 -0.76143 0.0
Zn Zn -0.222882 0.949852 -0.328773 0.0
C C 0.73912 1.3980299999999999 0.60923 0.0
H H 0.738 1.4485999999999999 0.5943 0.0
C C 0.74382 1.34993 0.52684 0.0
H H 0.7451 1.3686 0.4583 0.0
C C 0.74672 1.27623 0.54294 0.0
C C 0.74593 1.25423 0.64634 0.0
H H 0.7484999999999999 1.2038 0.6631 0.0
C C 0.74142 1.30522 0.72573 0.0
H H 0.7422 1.2881 0.7955 0.0
C C 0.8534200000000001 1.43753 0.98373 0.0
H H 0.827 1.4049 1.0179 0.0
C C 0.92092 1.4466299999999999 1.02474 0.0
H H 0.9398 1.4197 1.0853 0.0
C C 0.96242 1.4946199999999998 0.97913 0.0
C C 0.93173 1.53133 0.88794 0.0
H H 0.9575 1.5635 0.852 0.0
C C 0.86302 1.52003 0.85104 0.0
H H 0.8428 1.5464 0.7906 0.0
C C 0.66432 1.40323 0.98584 0.0
C C 0.62452 1.35773 1.05544 0.0
C C 0.58372 1.29802 1.01313 0.0
H H 0.5841 1.2841 0.9421 0.0
C C 0.54272 1.25902 1.07304 0.0
H H 0.5171 1.2187000000000001 1.0422 0.0
C C 0.53892 1.2782200000000001 1.17723 0.0
C C 0.57712 1.33823 1.22043 0.0
H H 0.5743 1.3533 1.2902 0.0
C C 0.62043 1.3769200000000001 1.16044 0.0
C C 0.66722 1.4356200000000001 1.21663 0.0
C C 0.5 1.23083 1.25 0.0
C C 0.44538 1.1801300000000001 1.18704 0.0
F F 0.4052687 1.2189413999999998 1.1092219 0.0
F F 0.4722786 1.1247114 1.13592 0.0
F F 0.4038786 1.1505314 1.2478819 0.0
N N 0.73602 1.3773518999999999 0.70783 0.0
N N 0.8227519 1.47322 0.89633 0.0
O O 0.6714117 1.4714517 1.00113 0.0
O O 0.6899417 1.3686717000000002 0.92242 0.0
O O 0.7287518 1.4328117 1.21563 0.0
O O 0.6427617999999999 1.4849219 1.26143 0.0
Zn Zn 0.722882 1.449852 0.828773 0.0
C C 0.26088 1.3980299999999999 -0.10923000000000005 0.0
H H 0.262 1.4485999999999999 -0.09430000000000005 0.0
C C 0.25617999999999996 1.34993 -0.026839999999999975 0.0
H H 0.2549 1.3686 0.041700000000000015 0.0
C C 0.25328 1.27623 -0.04293999999999998 0.0
C C 0.25407 1.25423 -0.14634000000000003 0.0
H H 0.2515 1.2038 -0.16310000000000002 0.0
C C 0.25858000000000003 1.30522 -0.22573 0.0
H H 0.25780000000000003 1.2881 -0.2955 0.0
C C 0.14658 1.43753 -0.48373 0.0
H H 0.173 1.4049 -0.5179 0.0
C C 0.07907999999999998 1.4466299999999999 -0.52474 0.0
H H 0.060199999999999976 1.4197 -0.5852999999999999 0.0
C C 0.03758 1.4946199999999998 -0.47912999999999994 0.0
C C 0.06827 1.53133 -0.38793999999999995 0.0
H H 0.04249999999999998 1.5635 -0.352 0.0
C C 0.13698 1.52003 -0.35104 0.0
H H 0.1572 1.5464 -0.29059999999999997 0.0
C C 0.33568 1.40323 -0.48584000000000005 0.0
C C 0.37548 1.35773 -0.5554399999999999 0.0
C C 0.41628 1.29802 -0.5131300000000001 0.0
H H 0.4159 1.2841 -0.44210000000000005 0.0
C C 0.45728 1.25902 -0.57304 0.0
H H 0.4829 1.2187000000000001 -0.5422 0.0
C C 0.46108 1.2782200000000001 -0.67723 0.0
C C 0.42288000000000003 1.33823 -0.7204299999999999 0.0
H H 0.42569999999999997 1.3533 -0.7902 0.0
C C 0.37957 1.3769200000000001 -0.6604399999999999 0.0
C C 0.33277999999999996 1.4356200000000001 -0.7166300000000001 0.0
C C 0.5 1.23083 -0.75 0.0
C C 0.55462 1.1801300000000001 -0.6870400000000001 0.0
F F 0.5947313 1.2189413999999998 -0.6092219000000001 0.0
F F 0.5277214 1.1247114 -0.63592 0.0
F F 0.5961214 1.1505314 -0.7478819000000001 0.0
N N 0.26398 1.3773518999999999 -0.20782999999999996 0.0
N N 0.17724810000000002 1.47322 -0.39632999999999996 0.0
O O 0.3285883 1.4714517 -0.5011300000000001 0.0
O O 0.3100583 1.3686717000000002 -0.42242 0.0
O O 0.2712482 1.4328117 -0.71563 0.0
O O 0.3572382 1.4849219 -0.76143 0.0
Zn Zn 0.277118 1.449852 -0.328773 0.0
C C -0.23912 -0.89803 -0.60923 0.0
H H -0.238 -0.9486 -0.5943 0.0
C C -0.24382 -0.84993 -0.52684 0.0
H H -0.2451 -0.8686 -0.4583 0.0
C C -0.24672 -0.77623 -0.54294 0.0
C C -0.24593 -0.75423 -0.64634 0.0
H H -0.2485 -0.7038 -0.6631 0.0
C C -0.24142 -0.80522 -0.72573 0.0
H H -0.2422 -0.7881 -0.7955 0.0
C C -0.35342 -0.93753 -0.98373 0.0
H H -0.327 -0.9049 -1.0179 0.0
C C -0.42092 -0.94663 -1.02474 0.0
H H -0.4398 -0.9197 -1.0853 0.0
C C -0.46242 -0.99462 -0.97913 0.0
C C -0.43173 -1.03133 -0.88794 0.0
H H -0.4575 -1.0635 -0.852 0.0
C C -0.36302 -1.02003 -0.85104 0.0
H H -0.3428 -1.0464 -0.7906 0.0
C C -0.16432 -0.90323 -0.98584 0.0
C C -0.12452 -0.85773 -1.05544 0.0
C C -0.08372 -0.79802 -1.01313 0.0
H H -0.0841 -0.7841 -0.9421 0.0
C C -0.04272 -0.75902 -1.07304 0.0
H H -0.0171 -0.7187 -1.0422 0.0
C C -0.03892 -0.77822 -1.17723 0.0
C C -0.07712 -0.83823 -1.22043 0.0
H H -0.0743 -0.8533 -1.2902 0.0
C C -0.12043 -0.87692 -1.16044 0.0
C C -0.16722 -0.93562 -1.21663 0.0
C C -0.0 -0.73083 -1.25 0.0
C C 0.05462 -0.68013 -1.18704 0.0
F F 0.0947313 -0.7189414 -1.1092219 0.0
F F 0.0277214 -0.6247114 -1.13592 0.0
F F 0.0961214 -0.6505314 -1.2478819 0.0
N N -0.23602 -0.8773519 -0.70783 0.0
N N -0.3227519 -0.97322 -0.89633 0.0
O O -0.1714117 -0.9714517 -1.00113 0.0
O O -0.1899417 -0.8686717 -0.92242 0.0
O O -0.2287518 -0.9328117 -1.21563 0.0
O O -0.1427618 -0.9849219 -1.26143 0.0
Zn Zn -0.222882 -0.949852 -0.828773 0.0
C C 0.23912 -0.89803 0.10923000000000005 0.0
H H 0.238 -0.9486 0.09430000000000005 0.0
C C 0.24382 -0.84993 0.026839999999999975 0.0
H H 0.2451 -0.8686 -0.041700000000000015 0.0
C C 0.24672 -0.77623 0.04293999999999998 0.0
C C 0.24593 -0.75423 0.14634000000000003 0.0
H H 0.2485 -0.7038 0.16310000000000002 0.0
C C 0.24142 -0.80522 0.22573 0.0
H H 0.2422 -0.7881 0.2955 0.0
C C 0.35342 -0.93753 0.48373 0.0
H H 0.327 -0.9049 0.5179 0.0
C C 0.42092 -0.94663 0.52474 0.0
H H 0.4398 -0.9197 0.5852999999999999 0.0
C C 0.46242 -0.99462 0.47912999999999994 0.0
C C 0.43173 -1.03133 0.38793999999999995 0.0
H H 0.4575 -1.0635 0.352 0.0
C C 0.36302 -1.02003 0.35104 0.0
H H 0.3428 -1.0464 0.29059999999999997 0.0
C C 0.16432 -0.90323 0.48584000000000005 0.0
C C 0.12452 -0.85773 0.5554399999999999 0.0
C C 0.08372 -0.79802 0.5131300000000001 0.0
H H 0.0841 -0.7841 0.44210000000000005 0.0
C C 0.04272 -0.75902 0.57304 0.0
H H 0.0171 -0.7187 0.5422 0.0
C C 0.03892 -0.77822 0.67723 0.0
C C 0.07712 -0.83823 0.7204299999999999 0.0
H H 0.0743 -0.8533 0.7902 0.0
C C 0.12043 -0.87692 0.6604399999999999 0.0
C C 0.16722 -0.93562 0.7166300000000001 0.0
C C 0.0 -0.73083 0.75 0.0
C C -0.05462 -0.68013 0.6870400000000001 0.0
F F -0.0947313 -0.7189414 0.6092219000000001 0.0
F F -0.0277214 -0.6247114 0.63592 0.0
F F -0.0961214 -0.6505314 0.7478819000000001 0.0
N N 0.23602 -0.8773519 0.20782999999999996 0.0
N N 0.3227519 -0.97322 0.39632999999999996 0.0
O O 0.1714117 -0.9714517 0.5011300000000001 0.0
O O 0.1899417 -0.8686717 0.42242 0.0
O O 0.2287518 -0.9328117 0.71563 0.0
O O 0.1427618 -0.9849219 0.76143 0.0
Zn Zn 0.222882 -0.949852 0.328773 0.0
C C 0.26088 -0.39803 -0.60923 0.0
H H 0.262 -0.4486 -0.5943 0.0
C C 0.25617999999999996 -0.34992999999999996 -0.52684 0.0
H H 0.2549 -0.36860000000000004 -0.4583 0.0
C C 0.25328 -0.27623 -0.54294 0.0
C C 0.25407 -0.25422999999999996 -0.64634 0.0
H H 0.2515 -0.20379999999999998 -0.6631 0.0
C C 0.25858000000000003 -0.30522000000000005 -0.72573 0.0
H H 0.25780000000000003 -0.2881 -0.7955 0.0
C C 0.14658 -0.43753 -0.98373 0.0
H H 0.173 -0.40490000000000004 -1.0179 0.0
C C 0.07907999999999998 -0.44662999999999997 -1.02474 0.0
H H 0.060199999999999976 -0.41969999999999996 -1.0853 0.0
C C 0.03758 -0.49461999999999995 -0.97913 0.0
C C 0.06827 -0.5313300000000001 -0.88794 0.0
H H 0.04249999999999998 -0.5634999999999999 -0.852 0.0
C C 0.13698 -0.52003 -0.85104 0.0
H H 0.1572 -0.5464 -0.7906 0.0
C C 0.33568 -0.40323 -0.98584 0.0
C C 0.37548 -0.35773 -1.05544 0.0
C C 0.41628 -0.29801999999999995 -1.01313 0.0
H H 0.4159 -0.2841 -0.9421 0.0
C C 0.45728 -0.25902000000000003 -1.07304 0.0
H H 0.4829 -0.2187 -1.0422 0.0
C C 0.46108 -0.27822 -1.17723 0.0
C C 0.42288000000000003 -0.33823000000000003 -1.22043 0.0
H H 0.42569999999999997 -0.35329999999999995 -1.2902 0.0
C C 0.37957 -0.37692000000000003 -1.16044 0.0
C C 0.33277999999999996 -0.43562 -1.21663 0.0
C C 0.5 -0.23082999999999998 -1.25 0.0
C C 0.55462 -0.18013 -1.18704 0.0
F F 0.5947313 -0.21894139999999995 -1.1092219 0.0
F F 0.5277214 -0.12471140000000003 -1.13592 0.0
F F 0.5961214 -0.15053139999999998 -1.2478819 0.0
N N 0.26398 -0.37735189999999996 -0.70783 0.0
N N 0.17724810000000002 -0.47322 -0.89633 0.0
O O 0.3285883 -0.47145170000000003 -1.00113 0.0
O O 0.3100583 -0.36867170000000005 -0.92242 0.0
O O 0.2712482 -0.4328117 -1.21563 0.0
O O 0.3572382 -0.4849219 -1.26143 0.0
Zn Zn 0.277118 -0.44985200000000003 -0.828773 0.0
C C 0.73912 -0.39803 0.10923000000000005 0.0
H H 0.738 -0.4486 0.09430000000000005 0.0
C C 0.74382 -0.34992999999999996 0.026839999999999975 0.0
H H 0.7451 -0.36860000000000004 -0.041700000000000015 0.0
C C 0.74672 -0.27623 0.04293999999999998 0.0
C C 0.74593 -0.25422999999999996 0.14634000000000003 0.0
H H 0.7484999999999999 -0.20379999999999998 0.16310000000000002 0.0
C C 0.74142 -0.30522000000000005 0.22573 0.0
H H 0.7422 -0.2881 0.2955 0.0
C C 0.8534200000000001 -0.43753 0.48373 0.0
H H 0.827 -0.40490000000000004 0.5179 0.0
C C 0.92092 -0.44662999999999997 0.52474 0.0
H H 0.9398 -0.41969999999999996 0.5852999999999999 0.0
C C 0.96242 -0.49461999999999995 0.47912999999999994 0.0
C C 0.93173 -0.5313300000000001 0.38793999999999995 0.0
H H 0.9575 -0.5634999999999999 0.352 0.0
C C 0.86302 -0.52003 0.35104 0.0
H H 0.8428 -0.5464 0.29059999999999997 0.0
C C 0.66432 -0.40323 0.48584000000000005 0.0
C C 0.62452 -0.35773 0.5554399999999999 0.0
C C 0.58372 -0.29801999999999995 0.5131300000000001 0.0
H H 0.5841 -0.2841 0.44210000000000005 0.0
C C 0.54272 -0.25902000000000003 0.57304 0.0
H H 0.5171 -0.2187 0.5422 0.0
C C 0.53892 -0.27822 0.67723 0.0
C C 0.57712 -0.33823000000000003 0.7204299999999999 0.0
H H 0.5743 -0.35329999999999995 0.7902 0.0
C C 0.62043 -0.37692000000000003 0.6604399999999999 0.0
C C 0.66722 -0.43562 0.7166300000000001 0.0
C C 0.5 -0.23082999999999998 0.75 0.0
C C 0.44538 -0.18013 0.6870400000000001 0.0
F F 0.4052687 -0.21894139999999995 0.6092219000000001 0.0
F F 0.4722786 -0.12471140000000003 0.63592 0.0
F F 0.4038786 -0.15053139999999998 0.7478819000000001 0.0
N N 0.73602 -0.37735189999999996 0.20782999999999996 0.0
N N 0.8227519 -0.47322 0.39632999999999996 0.0
O O 0.6714117 -0.47145170000000003 0.5011300000000001 0.0
O O 0.6899417 -0.36867170000000005 0.42242 0.0
O O 0.7287518 -0.4328117 0.71563 0.0
O O 0.6427617999999999 -0.4849219 0.76143 0.0
Zn Zn 0.722882 -0.44985200000000003 0.328773 0.0
_cell_length_a 19.5206
_cell_length_b 17.9856
_cell_length_c 12.6054
_cell_angle_alpha 90.0
_cell_angle_beta 99.0355
_cell_angle_gamma 90.0
_symmetry_space_group_name_H-M         'P 1'
_symmetry_Int_Tables_number            1
loop_
_symmetry_equiv_pos_as_xyz
   'x, y, z'
                         
loop_
_atom_site_label
_atom_site_type_symbol
_atom_site_fract_x 
_atom_site_fract_y
_atom_site_fract_z
_atom_site_charge
C C 0.23912 0.89803 0.60923 0.0
H H 0.238 0.9486 0.5943 0.0
C C 0.24382 0.84993 0.52684 0.0
H H 0.2451 0.8686 0.4583 0.0
C C 0.24672 0.77623 0.54294 0.0
C C 0.24593 0.75423 0.64634 0.0
H H 0.2485 0.7038 0.6631 0.0
C C 0.24142 0.80522 0.72573 0.0
H H 0.2422 0.7881 0.7955 0.0
C C 0.35342 0.93753 0.98373 0.0
H H 0.327 0.9049 1.0179 0.0
C C 0.42092 0.94663 1.02474 0.0
H H 0.4398 0.9197 1.0853 0.0
C C 0.46242 0.99462 0.97913 0.0
C C 0.43173 1.03133 0.88794 0.0
H H 0.4575 1.0635 0.852 0.0
C C 0.36302 1.02003 0.85104 0.0
H H 0.3428 1.0464 0.7906 0.0
C C 0.16432 0.90323 0.98584 0.0
C C 0.12452 0.85773 1.05544 0.0
C C 0.08372 0.79802 1.01313 0.0
H H 0.0841 0.7841 0.9421 0.0
C C 0.04272 0.75902 1.07304 0.0
H H 0.0171 0.7187 1.0422 0.0
C C 0.03892 0.77822 1.17723 0.0
C C 0.07712 0.83823 1.22043 0.0
H H 0.0743 0.8533 1.2902 0.0
C C 0.12043 0.87692 1.16044 0.0
C C 0.16722 0.93562 1.21663 0.0
C C 0.0 0.73083 1.25 0.0
C C -0.05462 0.68013 1.18704 0.0
F F -0.0947313 0.7189414 1.1092219 0.0
F F -0.0277214 0.6247114 1.13592 0.0
F F -0.0961214 0.6505314 1.2478819 0.0
N N 0.23602 0.8773519 0.70783 0.0
N N 0.3227519 0.97322 0.89633 0.0
O O 0.1714117 0.9714517 1.00113 0.0
O O 0.1899417 0.8686717 0.92242 0.0
O O 0.2287518 0.9328117 1.21563 0.0
O O 0.1427618 0.9849219 1.26143 0.0
Zn Zn 0.222882 0.949852 0.828773 0.0
C C -0.23912 0.89803 -0.10923000000000005 0.0
H H -0.238 0.9486 -0.09430000000000005 0.0
C C -0.24382 0.84993 -0.026839999999999975 0.0
H H -0.2451 0.8686 0.041700000000000015 0.0
C C -0.24672 0.77623 -0.04293999999999998 0.0
C C -0.24593 0.75423 -0.14634000000000003 0.0
H H -0.2485 0.7038 -0.16310000000000002 0.0
C C -0.24142 0.80522 -0.22573 0.0
H H -0.2422 0.7881 -0.2955 0.0
C C -0.35342 0.93753 -0.48373 0.0
H H -0.327 0.9049 -0.5179 0.0
C C -0.42092 0.94663 -0.52474 0.0
H H -0.4398 0.9197 -0.5852999999999999 0.0
C C -0.46242 0.99462 -0.47912999999999994 0.0
C C -0.43173 1.03133 -0.38793999999999995 0.0
H H -0.4575 1.0635 -0.352 0.0
C C -0.36302 1.02003 -0.35104 0.0
H H -0.3428 1.0464 -0.29059999999999997 0.0
C C -0.16432 0.90323 -0.48584000000000005 0.0
C C -0.12452 0.85773 -0.5554399999999999 0.0
C C -0.08372 0.79802 -0.5131300000000001 0.0
H H -0.0841 0.7841 -0.44210000000000005 0.0
C C -0.04272 0.75902 -0.57304 0.0
H H -0.0171 0.7187 -0.5422 0.0
C C -0.03892 0.77822 -0.67723 0.0
C C -0.07712 0.83823 -0.7204299999999999 0.0
H H -0.0743 0.8533 -0.7902 0.0
C C -0.12043 0.87692 -0.6604399999999999 0.0
C C -0.16722 0.93562 -0.7166300000000001 0.0
C C -0.0 0.73083 -0.75 0.0
C C 0.05462 0.68013 -0.6870400000000001 0.0
F F 0.0947313 0.7189414 -0.6092219000000001 0.0
F F 0.0277214 0.6247114 -0.63592 0.0
F F 0.0961214 0.6505314 -0.7478819000000001 0.0
N N -0.23602 0.8773519 -0.20782999999999996 0.0
N N -0.3227519 0.97322 -0.39632999999999996 0.0
O O -0.1714117 0.9714517 -0.5011300000000001 0.0
O O -0.1899417 0.8686717 -0.42242 0.0
O O -0.2287518 0.9328117 -0.71563 0.0
O O -0.1427618 0.9849219 -0.76143 0.0
Zn Zn -0.222882 0.949852 -0.328773 0.0
C C 0.73912 1.3980299999999999 0.60923 0.0
H H 0.738 1.4485999999999999 0.5943 0.0
C C 0.74382 1.34993 0.52684 0.0
H H 0.7451 1.3686 0.4583 0.0
C C 0.74672 1.27623 0.54294 0.0
C C 0.74593 1.25423 0.64634 0.0
H H 0.7484999999999999 1.2038 0.6631 0.0
C C 0.74142 1.30522 0.72573 0.0
H H 0.7422 1.2881 0.7955 0.0
C C 0.8534200000000001 1.43753 0.98373 0.0
H H 0.827 1.4049 1.0179 0.0
C C 0.92092 1.4466299999999999 1.02474 0.0
H H 0.9398 1.4197 1.0853 0.0
C C 0.96242 1.4946199999999998 0.97913 0.0
C C 0.93173 1.53133 0.88794 0.0
H H 0.9575 1.5635 0.852 0.0
C C 0.86302 1.52003 0.85104 0.0
H H 0.8428 1.5464 0.7906 0.0
C C 0.66432 1.40323 0.98584 0.0
C C 0.62452 1.35773 1.05544 0.0
C C 0.58372 1.29802 1.01313 0.0
H H 0.5841 1.2841 0.9421 0.0
C C 0.54272 1.25902 1.07304 0.0
H H 0.5171 1.2187000000000001 1.0422 0.0
C C 0.53892 1.2782200000000001 1.17723 0.0
C C 0.57712 1.33823 1.22043 0.0
H H 0.5743 1.3533 1.2902 0.0
C C 0.62043 1.3769200000000001 1.16044 0.0
C C 0.66722 1.4356200000000001 1.21663 0.0
C C 0.5 1.23083 1.25 0.0
C C 0.44538 1.1801300000000001 1.18704 0.0
F F 0.4052687 1.2189413999999998 1.1092219 0.0
F F 0.4722786 1.1247114 1.13592 0.0
F F 0.4038786 1.1505314 1.2478819 0.0
N N 0.73602 1.3773518999999999 0.70783 0.0
N N 0.8227519 1.47322 0.89633 0.0
O O 0.6714117 1.4714517 1.00113 0.0
O O 0.6899417 1.3686717000000002 0.92242 0.0
O O 0.7287518 1.4328117 1.21563 0.0
O O 0.6427617999999999 1.4849219 1.26143 0.0
Zn Zn 0.722882 1.449852 0.828773 0.0
C C 0.26088 1.3980299999999999 -0.10923000000000005 0.0
H H 0.262 1.4485999999999999 -0.09430000000000005 0.0
C C 0.25617999999999996 1.34993 -0.026839999999999975 0.0
H H 0.2549 1.3686 0.041700000000000015 0.0
C C 0.25328 1.27623 -0.04293999999999998 0.0
C C 0.25407 1.25423 -0.14634000000000003 0.0
H H 0.2515 1.2038 -0.16310000000000002 0.0
C C 0.25858000000000003 1.30522 -0.22573 0.0
H H 0.25780000000000003 1.2881 -0.2955 0.0
C C 0.14658 1.43753 -0.48373 0.0
H H 0.173 1.4049 -0.5179 0.0
C C 0.07907999999999998 1.4466299999999999 -0.52474 0.0
H H 0.060199999999999976 1.4197 -0.5852999999999999 0.0
C C 0.03758 1.4946199999999998 -0.47912999999999994 0.0
C C 0.06827 1.53133 -0.38793999999999995 0.0
H H 0.04249999999999998 1.5635 -0.352 0.0
C C 0.13698 1.52003 -0.35104 0.0
H H 0.1572 1.5464 -0.29059999999999997 0.0
C C 0.33568 1.40323 -0.48584000000000005 0.0
C C 0.37548 1.35773 -0.5554399999999999 0.0
C C 0.41628 1.29802 -0.5131300000000001 0.0
H H 0.4159 1.2841 -0.44210000000000005 0.0
C C 0.45728 1.25902 -0.57304 0.0
H H 0.4829 1.2187000000000001 -0.5422 0.0
C C 0.46108 1.2782200000000001 -0.67723 0.0
C C 0.42288000000000003 1.33823 -0.7204299999999999 0.0
H H 0.42569999999999997 1.3533 -0.7902 0.0
C C 0.37957 1.3769200000000001 -0.6604399999999999 0.0
C C 0.33277999999999996 1.4356200000000001 -0.7166300000000001 0.0
C C 0.5 1.23083 -0.75 0.0
C C 0.55462 1.1801300000000001 -0.6870400000000001 0.0
F F 0.5947313 1.2189413999999998 -0.6092219000000001 0.0
F F 0.5277214 1.1247114 -0.63592 0.0
F F 0.5961214 1.1505314 -0.7478819000000001 0.0
N N 0.26398 1.3773518999999999 -0.20782999999999996 0.0
N N 0.17724810000000002 1.47322 -0.39632999999999996 0.0
O O 0.3285883 1.4714517 -0.5011300000000001 0.0
O O 0.3100583 1.3686717000000002 -0.42242 0.0
O O 0.2712482 1.4328117 -0.71563 0.0
O O 0.3572382 1.4849219 -0.76143 0.0
Zn Zn 0.277118 1.449852 -0.328773 0.0
C C -0.23912 -0.89803 -0.60923 0.0
H H -0.238 -0.9486 -0.5943 0.0
C C -0.24382 -0.84993 -0.52684 0.0
H H -0.2451 -0.8686 -0.4583 0.0
C C -0.24672 -0.77623 -0.54294 0.0
C C -0.24593 -0.75423 -0.64634 0.0
H H -0.2485 -0.7038 -0.6631 0.0
C C -0.24142 -0.80522 -0.72573 0.0
H H -0.2422 -0.7881 -0.7955 0.0
C C -0.35342 -0.93753 -0.98373 0.0
H H -0.327 -0.9049 -1.0179 0.0
C C -0.42092 -0.94663 -1.02474 0.0
H H -0.4398 -0.9197 -1.0853 0.0
C C -0.46242 -0.99462 -0.97913 0.0
C C -0.43173 -1.03133 -0.88794 0.0
H H -0.4575 -1.0635 -0.852 0.0
C C -0.36302 -1.02003 -0.85104 0.0
H H -0.3428 -1.0464 -0.7906 0.0
C C -0.16432 -0.90323 -0.98584 0.0
C C -0.12452 -0.85773 -1.05544 0.0
C C -0.08372 -0.79802 -1.01313 0.0
H H -0.0841 -0.7841 -0.9421 0.0
C C -0.04272 -0.75902 -1.07304 0.0
H H -0.0171 -0.7187 -1.0422 0.0
C C -0.03892 -0.77822 -1.17723 0.0
C C -0.07712 -0.83823 -1.22043 0.0
H H -0.0743 -0.8533 -1.2902 0.0
C C -0.12043 -0.87692 -1.16044 0.0
C C -0.16722 -0.93562 -1.21663 0.0
C C -0.0 -0.73083 -1.25 0.0
C C 0.05462 -0.68013 -1.18704 0.0
F F 0.0947313 -0.7189414 -1.1092219 0.0
F F 0.0277214 -0.6247114 -1.13592 0.0
F F 0.0961214 -0.6505314 -1.2478819 0.0
N N -0.23602 -0.8773519 -0.70783 0.0
N N -0.3227519 -0.97322 -0.89633 0.0
O O -0.1714117 -0.9714517 -1.00113 0.0
O O -0.1899417 -0.8686717 -0.92242 0.0
O O -0.2287518 -0.9328117 -1.21563 0.0
O O -0.1427618 -0.9849219 -1.26143 0.0
Zn Zn -0.222882 -0.949852 -0.828773 0.0
C C 0.23912 -0.89803 0.10923000000000005 0.0
H H 0.238 -0.9486 0.09430000000000005 0.0
C C 0.24382 -0.84993 0.026839999999999975 0.0
H H 0.2451 -0.8686 -0.041700000000000015 0.0
C C 0.24672 -0.77623 0.04293999999999998 0.0
C C 0.24593 -0.75423 0.14634000000000003 0.0
H H 0.2485 -0.7038 0.16310000000000002 0.0
C C 0.24142 -0.80522 0.22573 0.0
H H 0.2422 -0.7881 0.2955 0.0
C C 0.35342 -0.93753 0.48373 0.0
H H 0.327 -0.9049 0.5179 0.0
C C 0.42092 -0.94663 0.52474 0.0
H H 0.4398 -0.9197 0.5852999999999999 0.0
C C 0.46242 -0.99462 0.47912999999999994 0.0
C C 0.43173 -1.03133 0.38793999999999995 0.0
H H 0.4575 -1.0635 0.352 0.0
C C 0.36302 -1.02003 0.35104 0.0
H H 0.3428 -1.0464 0.29059999999999997 0.0
C C 0.16432 -0.90323 0.48584000000000005 0.0
C C 0.12452 -0.85773 0.5554399999999999 0.0
C C 0.08372 -0.79802 0.5131300000000001 0.0
H H 0.0841 -0.7841 0.44210000000000005 0.0
C C 0.04272 -0.75902 0.57304 0.0
H H 0.0171 -0.7187 0.5422 0.0
C C 0.03892 -0.77822 0.67723 0.0
C C 0.07712 -0.83823 0.7204299999999999 0.0
H H 0.0743 -0.8533 0.7902 0.0
C C 0.12043 -0.87692 0.6604399999999999 0.0
C C 0.16722 -0.93562 0.7166300000000001 0.0
C C 0.0 -0.73083 0.75 0.0
C C -0.05462 -0.68013 0.6870400000000001 0.0
F F -0.0947313 -0.7189414 0.6092219000000001 0.0
F F -0.0277214 -0.6247114 0.63592 0.0
F F -0.0961214 -0.6505314 0.7478819000000001 0.0
N N 0.23602 -0.8773519 0.20782999999999996 0.0
N N 0.3227519 -0.97322 0.39632999999999996 0.0
O O 0.1714117 -0.9714517 0.5011300000000001 0.0
O O 0.1899417 -0.8686717 0.42242 0.0
O O 0.2287518 -0.9328117 0.71563 0.0
O O 0.1427618 -0.9849219 0.76143 0.0
Zn Zn 0.222882 -0.949852 0.328773 0.0
C C 0.26088 -0.39803 -0.60923 0.0
H H 0.262 -0.4486 -0.5943 0.0
C C 0.25617999999999996 -0.34992999999999996 -0.52684 0.0
H H 0.2549 -0.36860000000000004 -0.4583 0.0
C C 0.25328 -0.27623 -0.54294 0.0
C C 0.25407 -0.25422999999999996 -0.64634 0.0
H H 0.2515 -0.20379999999999998 -0.6631 0.0
C C 0.25858000000000003 -0.30522000000000005 -0.72573 0.0
H H 0.25780000000000003 -0.2881 -0.7955 0.0
C C 0.14658 -0.43753 -0.98373 0.0
H H 0.173 -0.40490000000000004 -1.0179 0.0
C C 0.07907999999999998 -0.44662999999999997 -1.02474 0.0
H H 0.060199999999999976 -0.41969999999999996 -1.0853 0.0
C C 0.03758 -0.49461999999999995 -0.97913 0.0
C C 0.06827 -0.5313300000000001 -0.88794 0.0
H H 0.04249999999999998 -0.5634999999999999 -0.852 0.0
C C 0.13698 -0.52003 -0.85104 0.0
H H 0.1572 -0.5464 -0.7906 0.0
C C 0.33568 -0.40323 -0.98584 0.0
C C 0.37548 -0.35773 -1.05544 0.0
C C 0.41628 -0.29801999999999995 -1.01313 0.0
H H 0.4159 -0.2841 -0.9421 0.0
C C 0.45728 -0.25902000000000003 -1.07304 0.0
H H 0.4829 -0.2187 -1.0422 0.0
C C 0.46108 -0.27822 -1.17723 0.0
C C 0.42288000000000003 -0.33823000000000003 -1.22043 0.0
H H 0.42569999999999997 -0.35329999999999995 -1.2902 0.0
C C 0.37957 -0.37692000000000003 -1.16044 0.0
C C 0.33277999999999996 -0.43562 -1.21663 0.0
C C 0.5 -0.23082999999999998 -1.25 0.0
C C 0.55462 -0.18013 -1.18704 0.0
F F 0.5947313 -0.21894139999999995 -1.1092219 0.0
F F 0.5277214 -0.12471140000000003 -1.13592 0.0
F F 0.5961214 -0.15053139999999998 -1.2478819 0.0
N N 0.26398 -0.37735189999999996 -0.70783 0.0
N N 0.17724810000000002 -0.47322 -0.89633 0.0
O O 0.3285883 -0.47145170000000003 -1.00113 0.0
O O 0.3100583 -0.36867170000000005 -0.92242 0.0
O O 0.2712482 -0.4328117 -1.21563 0.0
O O 0.3572382 -0.4849219 -1.26143 0.0
Zn Zn 0.277118 -0.44985200000000003 -0.828773 0.0
C C 0.73912 -0.39803 0.10923000000000005 0.0
H H 0.738 -0.4486 0.09430000000000005 0.0
C C 0.74382 -0.34992999999999996 0.026839999999999975 0.0
H H 0.7451 -0.36860000000000004 -0.041700000000000015 0.0
C C 0.74672 -0.27623 0.04293999999999998 0.0
C C 0.74593 -0.25422999999999996 0.14634000000000003 0.0
H H 0.7484999999999999 -0.20379999999999998 0.16310000000000002 0.0
C C 0.74142 -0.30522000000000005 0.22573 0.0
H H 0.7422 -0.2881 0.2955 0.0
C C 0.8534200000000001 -0.43753 0.48373 0.0
H H 0.827 -0.40490000000000004 0.5179 0.0
C C 0.92092 -0.44662999999999997 0.52474 0.0
H H 0.9398 -0.41969999999999996 0.5852999999999999 0.0
C C 0.96242 -0.49461999999999995 0.47912999999999994 0.0
C C 0.93173 -0.5313300000000001 0.38793999999999995 0.0
H H 0.9575 -0.5634999999999999 0.352 0.0
C C 0.86302 -0.52003 0.35104 0.0
H H 0.8428 -0.5464 0.29059999999999997 0.0
C C 0.66432 -0.40323 0.48584000000000005 0.0
C C 0.62452 -0.35773 0.5554399999999999 0.0
C C 0.58372 -0.29801999999999995 0.5131300000000001 0.0
H H 0.5841 -0.2841 0.44210000000000005 0.0
C C 0.54272 -0.25902000000000003 0.57304 0.0
H H 0.5171 -0.2187 0.5422 0.0
C C 0.53892 -0.27822 0.67723 0.0
C C 0.57712 -0.33823000000000003 0.7204299999999999 0.0
H H 0.5743 -0.35329999999999995 0.7902 0.0
C C 0.62043 -0.37692000000000003 0.6604399999999999 0.0
C C 0.66722 -0.43562 0.7166300000000001 0.0
C C 0.5 -0.23082999999999998 0.75 0.0
C C 0.44538 -0.18013 0.6870400000000001 0.0
F F 0.4052687 -0.21894139999999995 0.6092219000000001 0.0
F F 0.4722786 -0.12471140000000003 0.63592 0.0
F F 0.4038786 -0.15053139999999998 0.7478819000000001 0.0
N N 0.73602 -0.37735189999999996 0.20782999999999996 0.0
N N 0.8227519 -0.47322 0.39632999999999996 0.0
O O 0.6714117 -0.47145170000000003 0.5011300000000001 0.0
O O 0.6899417 -0.36867170000000005 0.42242 0.0
O O 0.7287518 -0.4328117 0.71563 0.0
O O 0.6427617999999999 -0.4849219 0.76143 0.0
Zn Zn 0.722882 -0.44985200000000003 0.328773 0.0
